@<TRIPOS>MOLECULE
FXA101_1
49 51 1 0 0 
SMALL
USER_CHARGES


@<TRIPOS>ATOM
  1 N1       6.8420     9.9900    22.7430 N.am  1 Q101  -0.8960 
  2 S1       8.1400     9.2310    23.3330 S.o2  1 Q101   1.3220 
  3 N2       4.4000     9.1300    20.4710 N.am  1 Q101  -0.3970 
  4 N3       3.0930     7.5030    14.2800 N.am  1 Q101  -0.4840 
  5 O3       6.5760     8.3830    20.3400 O.2   1 Q101  -0.6040 
  6 O4       2.6850     9.6850    14.3930 O.2   1 Q101  -0.6060 
  7 C7       2.2280     7.4110    13.0930 C.3   1 Q101   0.0840 
  8 C8       3.9480     6.3480    14.5990 C.3   1 Q101   0.0840 
  9 C12      5.6510     9.2330    22.4370 C.3   1 Q101   0.1690 
 10 C13      4.3540    10.0220    22.6400 C.3   1 Q101  -0.1080 
 11 C14      3.4610     9.6140    21.4730 C.3   1 Q101   0.1020 
 12 C15      4.0450     8.9850    19.0930 C.ar  1 Q101   0.0330 
 13 C21      4.8560     9.4860    18.0840 C.ar  1 Q101  -0.1060 
 14 C22      2.8610     8.3620    18.7270 C.ar  1 Q101   0.1210 
 15 C24      4.5070     9.3620    16.7550 C.ar  1 Q101  -0.0920 
 16 C26      2.4770     8.2190    17.4030 C.ar  1 Q101  -0.1400 
 17 C27      3.3220     8.7250    16.4150 C.ar  1 Q101  -0.1150 
 18 C28      3.0140     8.6530    14.9560 C.2   1 Q101   0.6760 
 19 C50      5.6340     8.8540    20.9610 C.2   1 Q101   0.6950 
 20 F1       2.0670     7.8840    19.6990 F     1 Q101  -0.1400 
 21 O1       8.8810    10.2610    23.9930 O.2   1 Q101  -0.5930 
 22 CL1     13.7140     7.5120    25.7230 Cl    1 Q101  -0.0550 
 23 C1      12.0240     7.5430    26.0980 C.2   1 Q101   0.0330 
 24 C2      11.4410     7.1410    27.2530 C.2   1 Q101  -0.1460 
 25 S2      10.9140     8.1380    24.9280 S.3   1 Q101   0.0240 
 26 C3      10.0540     7.3070    27.2020 C.2   1 Q101  -0.1130 
 27 C4       9.5920     7.8360    26.0030 C.2   1 Q101  -0.0920 
 28 C5       8.1780     8.0980    25.7100 C.2   1 Q101   0.0810 
 29 C6       7.6020     8.0680    24.5090 C.2   1 Q101  -0.4200 
 30 O2       8.6620     8.5580    22.1770 O.2   1 Q101  -0.5930 
 31 H142     2.8750    10.4530    21.0840 H     1 Q101   0.0600 
 32 H141     2.7930     8.7930    21.7530 H     1 Q101   0.0600 
 33 H132     3.8910     9.8220    23.6100 H     1 Q101   0.0720 
 34 H131     4.5540    11.1000    22.5880 H     1 Q101   0.0720 
 35 H83      3.3600     5.6100    15.1400 H     1 Q101   0.0490 
 36 H82      4.3320     5.9210    13.6680 H     1 Q101   0.0490 
 37 H81      4.7860     6.6870    15.2030 H     1 Q101   0.0490 
 38 H73      2.5530     8.1620    12.3690 H     1 Q101   0.0490 
 39 H72      2.2830     6.4120    12.6530 H     1 Q101   0.0490 
 40 H71      1.1920     7.6290    13.3750 H     1 Q101   0.0490 
 41 H6       6.8360     7.3660    24.2130 H     1 Q101   0.1940 
 42 H5       7.5750     8.2810    26.5990 H     1 Q101   0.1560 
 43 H3       9.3940     7.0620    28.0290 H     1 Q101   0.1600 
 44 H26      1.5500     7.7200    17.1560 H     1 Q101   0.1600 
 45 H24      5.1410     9.7940    15.9920 H     1 Q101   0.1630 
 46 H21      5.7800    10.0010    18.3330 H     1 Q101   0.1530 
 47 H2      11.9710     6.7500    28.1100 H     1 Q101   0.1720 
 48 H12      5.5880     8.2970    23.0050 H     1 Q101   0.0910 
 49 H1       7.0200    10.8210    22.1720 H     1 Q101   0.4670 
@<TRIPOS>BOND
  1   1   2  am  
  2   1   9  1   
  3   1  49  1   
  4   2  21  2   
  5   2  29  1   
  6   2  30  2   
  7   3  11  1   
  8   3  12  1   
  9   3  19  am  
 10   4   7  1   
 11   4   8  1   
 12   4  18  am  
 13   5  19  2   
 14   6  18  2   
 15   7  38  1   
 16   7  39  1   
 17   7  40  1   
 18   8  35  1   
 19   8  36  1   
 20   8  37  1   
 21   9  10  1   
 22   9  19  1   
 23   9  48  1   
 24  10  11  1   
 25  10  33  1   
 26  10  34  1   
 27  11  31  1   
 28  11  32  1   
 29  12  13  ar  
 30  12  14  ar  
 31  13  15  ar  
 32  13  46  1   
 33  14  16  ar  
 34  14  20  1   
 35  15  17  ar  
 36  15  45  1   
 37  16  17  ar  
 38  16  44  1   
 39  17  18  1   
 40  22  23  1   
 41  23  24  2   
 42  23  25  1   
 43  24  26  1   
 44  24  47  1   
 45  25  27  1   
 46  26  27  2   
 47  26  43  1   
 48  27  28  1   
 49  28  29  2   
 50  28  42  1   
 51  29  41  1   
@<TRIPOS>SUBSTRUCTURE
  1 Q101  19 GROUP 4 **** **** 0

# MOE 2011.10 (io_trps.svl 2011.10)
