@<TRIPOS>MOLECULE
FXA101_1
49 51 1 0 0 
SMALL
USER_CHARGES


@<TRIPOS>ATOM
  1 N1       6.8420     9.9900    22.7430 N.am  1 Q101  -0.8960 
  2 S1       8.1400     9.2310    23.3330 S.o2  1 Q101   1.3220 
  3 N2       4.4000     9.1300    20.4710 N.am  1 Q101  -0.3970 
  4 N3       3.0930     7.5030    14.2800 N.am  1 Q101  -0.4840 
  5 O3       6.5760     8.3830    20.3400 O.2   1 Q101  -0.6040 
  6 O4       2.6850     9.6850    14.3930 O.2   1 Q101  -0.6060 
  7 C7       2.2280     7.4110    13.0930 C.3   1 Q101   0.0840 
  8 C8       3.9480     6.3480    14.5990 C.3   1 Q101   0.0840 
  9 C12      5.6510     9.2330    22.4370 C.3   1 Q101   0.1690 
 10 C13      4.3540    10.0220    22.6400 C.3   1 Q101  -0.1080 
 11 C14      3.4610     9.6140    21.4730 C.3   1 Q101   0.1020 
 12 C15      4.0450     8.9850    19.0930 C.ar  1 Q101   0.0330 
 13 C21      4.8560     9.4860    18.0840 C.ar  1 Q101  -0.1060 
 14 C22      2.8610     8.3620    18.7270 C.ar  1 Q101   0.1210 
 15 C24      4.5070     9.3620    16.7550 C.ar  1 Q101  -0.0920 
 16 C26      2.4770     8.2190    17.4030 C.ar  1 Q101  -0.1400 
 17 C27      3.3220     8.7250    16.4150 C.ar  1 Q101  -0.1150 
 18 C28      3.0140     8.6530    14.9560 C.2   1 Q101   0.6760 
 19 C50      5.6340     8.8540    20.9610 C.2   1 Q101   0.6950 
 20 F1       2.0670     7.8840    19.6990 F     1 Q101  -0.1400 
 21 O1       8.8810    10.2610    23.9930 O.2   1 Q101  -0.5930 
 22 CL1     13.7140     7.5120    25.7230 Cl    1 Q101  -0.0550 
 23 C1      12.0240     7.5430    26.0980 C.2   1 Q101   0.0330 
 24 C2      11.4410     7.1410    27.2530 C.2   1 Q101  -0.1460 
 25 S2      10.9140     8.1380    24.9280 S.3   1 Q101   0.0240 
 26 C3      10.0540     7.3070    27.2020 C.2   1 Q101  -0.1130 
 27 C4       9.5920     7.8360    26.0030 C.2   1 Q101  -0.0920 
 28 C5       8.1780     8.0980    25.7100 C.2   1 Q101   0.0810 
 29 C6       7.6020     8.0680    24.5090 C.2   1 Q101  -0.4200 
 30 O2       8.6620     8.5580    22.1770 O.2   1 Q101  -0.5930 
 31 H142     2.8750    10.4530    21.0840 H     1 Q101   0.0600 
 32 H141     2.7930     8.7930    21.7530 H     1 Q101   0.0600 
 33 H132     3.8910     9.8220    23.6100 H     1 Q101   0.0720 
 34 H131     4.5540    11.1000    22.5880 H     1 Q101   0.0720 
 35 H83      3.3600     5.6100    15.1400 H     1 Q101   0.0490 
 36 H82      4.3320     5.9210    13.6680 H     1 Q101   0.0490 
 37 H81      4.7860     6.6870    15.2030 H     1 Q101   0.0490 
 38 H73      2.5530     8.1620    12.3690 H     1 Q101   0.0490 
 39 H72      2.2830     6.4120    12.6530 H     1 Q101   0.0490 
 40 H71      1.1920     7.6290    13.3750 H     1 Q101   0.0490 
 41 H6       6.8360     7.3660    24.2130 H     1 Q101   0.1940 
 42 H5       7.5750     8.2810    26.5990 H     1 Q101   0.1560 
 43 H3       9.3940     7.0620    28.0290 H     1 Q101   0.1600 
 44 H26      1.5500     7.7200    17.1560 H     1 Q101   0.1600 
 45 H24      5.1410     9.7940    15.9920 H     1 Q101   0.1630 
 46 H21      5.7800    10.0010    18.3330 H     1 Q101   0.1530 
 47 H2      11.9710     6.7500    28.1100 H     1 Q101   0.1720 
 48 H12      5.5880     8.2970    23.0050 H     1 Q101   0.0910 
 49 H1       7.0200    10.8210    22.1720 H     1 Q101   0.4670 
@<TRIPOS>BOND
  1   1   2  am  
  2   1   9  1   
  3   1  49  1   
  4   2  21  2   
  5   2  29  1   
  6   2  30  2   
  7   3  11  1   
  8   3  12  1   
  9   3  19  am  
 10   4   7  1   
 11   4   8  1   
 12   4  18  am  
 13   5  19  2   
 14   6  18  2   
 15   7  38  1   
 16   7  39  1   
 17   7  40  1   
 18   8  35  1   
 19   8  36  1   
 20   8  37  1   
 21   9  10  1   
 22   9  19  1   
 23   9  48  1   
 24  10  11  1   
 25  10  33  1   
 26  10  34  1   
 27  11  31  1   
 28  11  32  1   
 29  12  13  ar  
 30  12  14  ar  
 31  13  15  ar  
 32  13  46  1   
 33  14  16  ar  
 34  14  20  1   
 35  15  17  ar  
 36  15  45  1   
 37  16  17  ar  
 38  16  44  1   
 39  17  18  1   
 40  22  23  1   
 41  23  24  2   
 42  23  25  1   
 43  24  26  1   
 44  24  47  1   
 45  25  27  1   
 46  26  27  2   
 47  26  43  1   
 48  27  28  1   
 49  28  29  2   
 50  28  42  1   
 51  29  41  1   
@<TRIPOS>SUBSTRUCTURE
  1 Q101  19 GROUP 4 **** **** 0

# MOE 2011.10 (io_trps.svl 2011.10)

@<TRIPOS>MOLECULE
FXA101_2
49 51 1 0 0 
SMALL
USER_CHARGES


@<TRIPOS>ATOM
  1 N1       6.6710     9.9330    22.9940 N.am  1 Q101  -0.8960 
  2 S1       8.1430     9.4530    23.4530 S.o2  1 Q101   1.3220 
  3 N2       4.8800    10.6210    20.1330 N.am  1 Q101  -0.3970 
  4 N3       3.7280    14.9060    15.3230 N.am  1 Q101  -0.4840 
  5 O3       7.0100    11.4100    20.5170 O.2   1 Q101  -0.6040 
  6 O4       2.1510    15.2890    16.8410 O.2   1 Q101  -0.6060 
  7 C7       3.7740    16.3290    14.9520 C.3   1 Q101   0.0840 
  8 C8       4.3520    13.9360    14.4080 C.3   1 Q101   0.0840 
  9 C12      6.1350     9.4780    21.7320 C.3   1 Q101   0.1690 
 10 C13      4.6800     9.0040    21.8190 C.3   1 Q101  -0.1080 
 11 C14      4.0240     9.5160    20.5420 C.3   1 Q101   0.1020 
 12 C15      4.4530    11.6170    19.1980 C.ar  1 Q101   0.0330 
 13 C21      4.3540    12.9520    19.5640 C.ar  1 Q101  -0.1060 
 14 C22      4.0990    11.2690    17.9030 C.ar  1 Q101   0.1210 
 15 C24      3.9270    13.9120    18.6680 C.ar  1 Q101  -0.0920 
 16 C26      3.6650    12.2040    16.9770 C.ar  1 Q101  -0.1400 
 17 C27      3.5880    13.5390    17.3760 C.ar  1 Q101  -0.1150 
 18 C28      3.1180    14.6380    16.4810 C.2   1 Q101   0.6760 
 19 C50      6.0960    10.6280    20.7320 C.2   1 Q101   0.6950 
 20 F1       4.1830     9.9770    17.5460 F     1 Q101  -0.1400 
 21 O1       8.5950    10.4900    24.3280 O.2   1 Q101  -0.5930 
 22 CL1     14.0520     7.2860    26.8930 Cl    1 Q101  -0.0550 
 23 C1      12.5460     7.5800    26.0910 C.2   1 Q101   0.0330 
 24 C2      12.3740     8.0220    24.8220 C.2   1 Q101  -0.1460 
 25 S2      11.0750     7.2980    26.9350 S.3   1 Q101   0.0240 
 26 C3      11.0180     8.1480    24.5100 C.2   1 Q101  -0.1130 
 27 C4      10.1650     7.7980    25.5500 C.2   1 Q101  -0.0920 
 28 C5       8.7000     7.8490    25.4660 C.2   1 Q101   0.0810 
 29 C6       7.9770     7.9750    24.3540 C.2   1 Q101  -0.4200 
 30 O2       8.7950     9.1970    22.2000 O.2   1 Q101  -0.5930 
 31 H142     2.9990     9.8600    20.7100 H     1 Q101   0.0600 
 32 H141     4.0360     8.7540    19.7560 H     1 Q101   0.0600 
 33 H132     4.6010     7.9180    21.9220 H     1 Q101   0.0720 
 34 H131     4.1880     9.4540    22.6900 H     1 Q101   0.0720 
 35 H83      3.6530    13.7030    13.6080 H     1 Q101   0.0490 
 36 H82      5.2690    14.3700    13.9980 H     1 Q101   0.0490 
 37 H81      4.6060    13.0390    14.9670 H     1 Q101   0.0490 
 38 H73      4.3750    16.8620    15.6930 H     1 Q101   0.0490 
 39 H72      4.2050    16.4530    13.9550 H     1 Q101   0.0490 
 40 H71      2.7610    16.7450    14.9660 H     1 Q101   0.0490 
 41 H6       7.3080     7.2200    23.9680 H     1 Q101   0.1940 
 42 H5       8.2040     7.7180    26.4260 H     1 Q101   0.1560 
 43 H3      10.6570     8.4720    23.5390 H     1 Q101   0.1600 
 44 H26      3.4050    11.8960    15.9730 H     1 Q101   0.1600 
 45 H24      3.8260    14.9390    18.9930 H     1 Q101   0.1630 
 46 H21      4.6020    13.2600    20.5770 H     1 Q101   0.1530 
 47 H2      13.1750     8.2440    24.1300 H     1 Q101   0.1720 
 48 H12      6.7390     8.6830    21.2780 H     1 Q101   0.0910 
 49 H1       6.3700    10.8570    23.3150 H     1 Q101   0.4670 
@<TRIPOS>BOND
  1   1   2  am  
  2   1   9  1   
  3   1  49  1   
  4   2  21  2   
  5   2  29  1   
  6   2  30  2   
  7   3  11  1   
  8   3  12  1   
  9   3  19  am  
 10   4   7  1   
 11   4   8  1   
 12   4  18  am  
 13   5  19  2   
 14   6  18  2   
 15   7  38  1   
 16   7  39  1   
 17   7  40  1   
 18   8  35  1   
 19   8  36  1   
 20   8  37  1   
 21   9  10  1   
 22   9  19  1   
 23   9  48  1   
 24  10  11  1   
 25  10  33  1   
 26  10  34  1   
 27  11  31  1   
 28  11  32  1   
 29  12  13  ar  
 30  12  14  ar  
 31  13  15  ar  
 32  13  46  1   
 33  14  16  ar  
 34  14  20  1   
 35  15  17  ar  
 36  15  45  1   
 37  16  17  ar  
 38  16  44  1   
 39  17  18  1   
 40  22  23  1   
 41  23  24  2   
 42  23  25  1   
 43  24  26  1   
 44  24  47  1   
 45  25  27  1   
 46  26  27  2   
 47  26  43  1   
 48  27  28  1   
 49  28  29  2   
 50  28  42  1   
 51  29  41  1   
@<TRIPOS>SUBSTRUCTURE
  1 Q101  19 GROUP 4 **** **** 0

# MOE 2011.10 (io_trps.svl 2011.10)

@<TRIPOS>MOLECULE
FXA101_3
49 51 1 0 0 
SMALL
USER_CHARGES


@<TRIPOS>ATOM
  1 N1       6.2140     9.2650    21.0970 N.am  1 Q101  -0.8960 
  2 S1       6.6190    10.3830    22.1900 S.o2  1 Q101   1.3220 
  3 N2       6.0050     5.9140    20.3260 N.am  1 Q101  -0.3970 
  4 N3       9.1230     1.2300    17.1160 N.am  1 Q101  -0.4840 
  5 O3       8.0010     7.0500    20.5200 O.2   1 Q101  -0.6040 
  6 O4       7.0750     1.0950    16.2610 O.2   1 Q101  -0.6060 
  7 C7       9.6740     0.6050    15.9030 C.3   1 Q101   0.0840 
  8 C8      10.0000     1.3400    18.2930 C.3   1 Q101   0.0840 
  9 C12      5.9470     7.9120    21.5280 C.3   1 Q101   0.1690 
 10 C13      4.5080     7.4570    21.2620 C.3   1 Q101  -0.1080 
 11 C14      4.6340     6.0080    20.8050 C.3   1 Q101   0.1020 
 12 C15      6.4510     4.8510    19.4780 C.ar  1 Q101   0.0330 
 13 C21      6.7590     3.6000    19.9930 C.ar  1 Q101  -0.1060 
 14 C22      6.6160     5.0520    18.1160 C.ar  1 Q101   0.1210 
 15 C24      7.2050     2.5780    19.1790 C.ar  1 Q101  -0.0920 
 16 C26      7.0620     4.0520    17.2680 C.ar  1 Q101  -0.1400 
 17 C27      7.3510     2.8020    17.8180 C.ar  1 Q101  -0.1150 
 18 C28      7.8580     1.6490    17.0170 C.2   1 Q101   0.6760 
 19 C50      6.8040     6.9310    20.7370 C.2   1 Q101   0.6950 
 20 F1       6.3290     6.2640    17.6120 F     1 Q101  -0.1400 
 21 O1       5.6060    10.2780    23.1940 O.2   1 Q101  -0.5930 
 22 CL1     11.7960     6.9810    27.5470 Cl    1 Q101  -0.0550 
 23 C1      10.9970     7.7430    26.2140 C.2   1 Q101   0.0330 
 24 C2      11.5800     8.2680    25.1100 C.2   1 Q101  -0.1460 
 25 S2       9.2820     7.8760    26.2260 S.3   1 Q101   0.0240 
 26 C3      10.6250     8.8050    24.2410 C.2   1 Q101  -0.1130 
 27 C4       9.3170     8.6820    24.6940 C.2   1 Q101  -0.0920 
 28 C5       8.1430     9.1700    23.9620 C.2   1 Q101   0.0810 
 29 C6       8.1540     9.9430    22.8760 C.2   1 Q101  -0.4200 
 30 O2       6.7570    11.5680    21.3900 O.2   1 Q101  -0.5930 
 31 H142     3.9250     5.7610    20.0090 H     1 Q101   0.0600 
 32 H141     4.5070     5.3150    21.6430 H     1 Q101   0.0600 
 33 H132     3.8690     7.5630    22.1430 H     1 Q101   0.0720 
 34 H131     4.0640     8.0580    20.4590 H     1 Q101   0.0720 
 35 H83      9.9890     0.3940    18.8310 H     1 Q101   0.0490 
 36 H82     11.0140     1.5790    17.9620 H     1 Q101   0.0490 
 37 H81      9.6370     2.1440    18.9280 H     1 Q101   0.0490 
 38 H73      9.7100     1.3580    15.1110 H     1 Q101   0.0490 
 39 H72     10.6760     0.2110    16.0950 H     1 Q101   0.0490 
 40 H71      9.0170    -0.2080    15.5780 H     1 Q101   0.0490 
 41 H6       9.0480    10.3240    22.4040 H     1 Q101   0.1940 
 42 H5       7.1980     8.7960    24.3540 H     1 Q101   0.1560 
 43 H3      10.8750     9.2620    23.2890 H     1 Q101   0.1600 
 44 H26      7.1710     4.2430    16.2080 H     1 Q101   0.1600 
 45 H24      7.4710     1.6250    19.6150 H     1 Q101   0.1630 
 46 H21      6.6640     3.4110    21.0600 H     1 Q101   0.1530 
 47 H2      12.6430     8.2700    24.9120 H     1 Q101   0.1720 
 48 H12      6.1790     7.7520    22.5870 H     1 Q101   0.0910 
 49 H1       6.6050     9.3810    20.1580 H     1 Q101   0.4670 
@<TRIPOS>BOND
  1   1   2  am  
  2   1   9  1   
  3   1  49  1   
  4   2  21  2   
  5   2  29  1   
  6   2  30  2   
  7   3  11  1   
  8   3  12  1   
  9   3  19  am  
 10   4   7  1   
 11   4   8  1   
 12   4  18  am  
 13   5  19  2   
 14   6  18  2   
 15   7  38  1   
 16   7  39  1   
 17   7  40  1   
 18   8  35  1   
 19   8  36  1   
 20   8  37  1   
 21   9  10  1   
 22   9  19  1   
 23   9  48  1   
 24  10  11  1   
 25  10  33  1   
 26  10  34  1   
 27  11  31  1   
 28  11  32  1   
 29  12  13  ar  
 30  12  14  ar  
 31  13  15  ar  
 32  13  46  1   
 33  14  16  ar  
 34  14  20  1   
 35  15  17  ar  
 36  15  45  1   
 37  16  17  ar  
 38  16  44  1   
 39  17  18  1   
 40  22  23  1   
 41  23  24  2   
 42  23  25  1   
 43  24  26  1   
 44  24  47  1   
 45  25  27  1   
 46  26  27  2   
 47  26  43  1   
 48  27  28  1   
 49  28  29  2   
 50  28  42  1   
 51  29  41  1   
@<TRIPOS>SUBSTRUCTURE
  1 Q101   5 GROUP 4 **** **** 0

# MOE 2011.10 (io_trps.svl 2011.10)

@<TRIPOS>MOLECULE
FXA101_4
49 51 1 0 0 
SMALL
USER_CHARGES


@<TRIPOS>ATOM
  1 N1       3.6150     7.0890    16.7950 N.am  1 Q101  -0.8960 
  2 S1       3.2850     6.2460    15.4580 S.o2  1 Q101   1.3220 
  3 N2       5.5120     9.4740    18.4020 N.am  1 Q101  -0.3970 
  4 N3       8.8210     9.9520    23.9780 N.am  1 Q101  -0.4840 
  5 O3       6.1600     7.2740    18.1790 O.2   1 Q101  -0.6040 
  6 O4       8.8700    12.0240    23.1770 O.2   1 Q101  -0.6060 
  7 C7      10.1740     9.3770    23.9120 C.3   1 Q101   0.0840 
  8 C8       7.9300     9.4890    25.0540 C.3   1 Q101   0.0840 
  9 C12      4.4680     8.2520    16.7120 C.3   1 Q101   0.1690 
 10 C13      3.7180     9.5760    16.8940 C.3   1 Q101  -0.1080 
 11 C14      4.6510    10.4400    17.7360 C.3   1 Q101   0.1020 
 12 C15      6.2900     9.8050    19.5550 C.ar  1 Q101   0.0330 
 13 C21      5.7230     9.8440    20.8210 C.ar  1 Q101  -0.1060 
 14 C22      7.6350    10.1260    19.4350 C.ar  1 Q101   0.1210 
 15 C24      6.4690    10.1800    21.9320 C.ar  1 Q101  -0.0920 
 16 C26      8.4150    10.4690    20.5270 C.ar  1 Q101  -0.1400 
 17 C27      7.8140    10.4870    21.7860 C.ar  1 Q101  -0.1150 
 18 C28      8.5390    10.8580    23.0370 C.2   1 Q101   0.6760 
 19 C50      5.4880     8.2370    17.8440 C.2   1 Q101   0.6950 
 20 F1       8.1880    10.1000    18.2110 F     1 Q101  -0.1400 
 21 O1       3.5100     7.1730    14.3920 O.2   1 Q101  -0.5930 
 22 CL1      2.8180     2.9750    21.1640 Cl    1 Q101  -0.0550 
 23 C1       3.7400     3.1420    19.7080 C.2   1 Q101   0.0330 
 24 C2       4.6190     2.2480    19.1950 C.2   1 Q101  -0.1460 
 25 S2       3.5660     4.5680    18.7620 S.3   1 Q101   0.0240 
 26 C3       5.1830     2.7180    18.0060 C.2   1 Q101  -0.1130 
 27 C4       4.7250     3.9720    17.6220 C.2   1 Q101  -0.0920 
 28 C5       5.1700     4.6760    16.4130 C.2   1 Q101   0.0810 
 29 C6       4.4310     4.9450    15.3380 C.2   1 Q101  -0.4200 
 30 O2       1.9740     5.7260    15.7300 O.2   1 Q101  -0.5930 
 31 H142     4.1080    11.0470    18.4680 H     1 Q101   0.0600 
 32 H141     5.2700    11.0860    17.1060 H     1 Q101   0.0600 
 33 H132     3.4620    10.0450    15.9400 H     1 Q101   0.0720 
 34 H131     2.7820     9.4080    17.4400 H     1 Q101   0.0720 
 35 H83      7.4680     8.5510    24.7530 H     1 Q101   0.0490 
 36 H82      8.5150     9.3500    25.9670 H     1 Q101   0.0490 
 37 H81      7.1720    10.2480    25.2330 H     1 Q101   0.0490 
 38 H73     10.8990    10.1750    24.0930 H     1 Q101   0.0490 
 39 H72     10.2920     8.5840    24.6540 H     1 Q101   0.0490 
 40 H71     10.3530     8.9710    22.9100 H     1 Q101   0.0490 
 41 H6       4.5040     4.4200    14.3960 H     1 Q101   0.1940 
 42 H5       6.1970     5.0370    16.4730 H     1 Q101   0.1560 
 43 H3       5.9010     2.1510    17.4220 H     1 Q101   0.1600 
 44 H26      9.4630    10.7050    20.3960 H     1 Q101   0.1600 
 45 H24      5.9910    10.2370    22.9010 H     1 Q101   0.1630 
 46 H21      4.6670     9.6210    20.9520 H     1 Q101   0.1530 
 47 H2       4.8540     1.2890    19.6370 H     1 Q101   0.1720 
 48 H12      5.0350     8.2940    15.7750 H     1 Q101   0.0910 
 49 H1       3.6370     6.5640    17.6730 H     1 Q101   0.4670 
@<TRIPOS>BOND
  1   1   2  am  
  2   1   9  1   
  3   1  49  1   
  4   2  21  2   
  5   2  29  1   
  6   2  30  2   
  7   3  11  1   
  8   3  12  1   
  9   3  19  am  
 10   4   7  1   
 11   4   8  1   
 12   4  18  am  
 13   5  19  2   
 14   6  18  2   
 15   7  38  1   
 16   7  39  1   
 17   7  40  1   
 18   8  35  1   
 19   8  36  1   
 20   8  37  1   
 21   9  10  1   
 22   9  19  1   
 23   9  48  1   
 24  10  11  1   
 25  10  33  1   
 26  10  34  1   
 27  11  31  1   
 28  11  32  1   
 29  12  13  ar  
 30  12  14  ar  
 31  13  15  ar  
 32  13  46  1   
 33  14  16  ar  
 34  14  20  1   
 35  15  17  ar  
 36  15  45  1   
 37  16  17  ar  
 38  16  44  1   
 39  17  18  1   
 40  22  23  1   
 41  23  24  2   
 42  23  25  1   
 43  24  26  1   
 44  24  47  1   
 45  25  27  1   
 46  26  27  2   
 47  26  43  1   
 48  27  28  1   
 49  28  29  2   
 50  28  42  1   
 51  29  41  1   
@<TRIPOS>SUBSTRUCTURE
  1 Q101   5 GROUP 4 **** **** 0

# MOE 2011.10 (io_trps.svl 2011.10)

@<TRIPOS>MOLECULE
FXA101_5
49 51 1 0 0 
SMALL
USER_CHARGES


@<TRIPOS>ATOM
  1 N1      -3.4560     9.9700    13.3950 N.am  1 Q101  -0.8960 
  2 S1      -4.1000    10.4380    11.9900 S.o2  1 Q101   1.3220 
  3 N2      -2.0290    11.5400    16.1100 N.am  1 Q101  -0.3970 
  4 N3       3.8680    13.6700    17.7860 N.am  1 Q101  -0.4840 
  5 O3      -1.7480    12.2540    13.9370 O.2   1 Q101  -0.6040 
  6 O4       2.6250    14.2490    19.5350 O.2   1 Q101  -0.6060 
  7 C7       4.9910    13.1800    18.5990 C.3   1 Q101   0.0840 
  8 C8       4.1340    14.0080    16.3780 C.3   1 Q101   0.0840 
  9 C12     -3.6140    10.8050    14.5640 C.3   1 Q101   0.1690 
 10 C13     -3.7920    10.0130    15.8630 C.3   1 Q101  -0.1080 
 11 C14     -2.9850    10.7810    16.9040 C.3   1 Q101   0.1020 
 12 C15     -0.8480    12.1160    16.6740 C.ar  1 Q101   0.0330 
 13 C21      0.2900    11.3530    16.8960 C.ar  1 Q101  -0.1060 
 14 C22     -0.8160    13.4530    17.0420 C.ar  1 Q101   0.1210 
 15 C24      1.4250    11.9040    17.4550 C.ar  1 Q101  -0.0920 
 16 C26      0.3040    14.0400    17.6070 C.ar  1 Q101  -0.1400 
 17 C27      1.4340    13.2460    17.8050 C.ar  1 Q101  -0.1150 
 18 C28      2.6960    13.7520    18.4220 C.2   1 Q101   0.6760 
 19 C50     -2.3520    11.6280    14.7950 C.2   1 Q101   0.6950 
 20 F1      -1.9180    14.1940    16.8380 F     1 Q101  -0.1400 
 21 O1      -3.4030    11.6450    11.6680 O.2   1 Q101  -0.5930 
 22 CL1      0.1720     6.7340     6.0620 Cl    1 Q101  -0.0550 
 23 C1      -0.9560     7.2450     7.2730 C.2   1 Q101   0.0330 
 24 C2      -2.1100     6.6260     7.6200 C.2   1 Q101  -0.1460 
 25 S2      -0.6360     8.6760     8.1690 S.3   1 Q101   0.0240 
 26 C3      -2.7700     7.3230     8.6350 C.2   1 Q101  -0.1130 
 27 C4      -2.1090     8.4720     9.0540 C.2   1 Q101  -0.0920 
 28 C5      -2.6050     9.3700    10.1030 C.2   1 Q101   0.0810 
 29 C6      -3.7360     9.2290    10.7950 C.2   1 Q101  -0.4200 
 30 O2      -5.5070    10.4420    12.2750 O.2   1 Q101  -0.5930 
 31 H142    -2.4690    10.1170    17.6040 H     1 Q101   0.0600 
 32 H141    -3.6170    11.4840    17.4570 H     1 Q101   0.0600 
 33 H132    -4.8440     9.9060    16.1460 H     1 Q101   0.0720 
 34 H131    -3.3780     9.0030    15.7510 H     1 Q101   0.0720 
 35 H83      4.5500    15.0120    16.3270 H     1 Q101   0.0490 
 36 H82      4.8390    13.2820    15.9640 H     1 Q101   0.0490 
 37 H81      3.2020    13.9520    15.8210 H     1 Q101   0.0490 
 38 H73      4.7820    12.1480    18.8950 H     1 Q101   0.0490 
 39 H72      5.9260    13.2280    18.0340 H     1 Q101   0.0490 
 40 H71      5.0810    13.7860    19.5070 H     1 Q101   0.0490 
 41 H6      -4.4440     8.4260    10.6550 H     1 Q101   0.1940 
 42 H5      -1.9230    10.1870    10.3360 H     1 Q101   0.1560 
 43 H3      -3.7070     6.9930     9.0730 H     1 Q101   0.1600 
 44 H26      0.2940    15.0890    17.8740 H     1 Q101   0.1600 
 45 H24      2.2840    11.2760    17.6490 H     1 Q101   0.1630 
 46 H21      0.2960    10.2960    16.6410 H     1 Q101   0.1530 
 47 H2      -2.4770     5.7090     7.1800 H     1 Q101   0.1720 
 48 H12     -4.4420    11.5160    14.4670 H     1 Q101   0.0910 
 49 H1      -2.6030     9.4080    13.3430 H     1 Q101   0.4670 
@<TRIPOS>BOND
  1   1   2  am  
  2   1   9  1   
  3   1  49  1   
  4   2  21  2   
  5   2  29  1   
  6   2  30  2   
  7   3  11  1   
  8   3  12  1   
  9   3  19  am  
 10   4   7  1   
 11   4   8  1   
 12   4  18  am  
 13   5  19  2   
 14   6  18  2   
 15   7  38  1   
 16   7  39  1   
 17   7  40  1   
 18   8  35  1   
 19   8  36  1   
 20   8  37  1   
 21   9  10  1   
 22   9  19  1   
 23   9  48  1   
 24  10  11  1   
 25  10  33  1   
 26  10  34  1   
 27  11  31  1   
 28  11  32  1   
 29  12  13  ar  
 30  12  14  ar  
 31  13  15  ar  
 32  13  46  1   
 33  14  16  ar  
 34  14  20  1   
 35  15  17  ar  
 36  15  45  1   
 37  16  17  ar  
 38  16  44  1   
 39  17  18  1   
 40  22  23  1   
 41  23  24  2   
 42  23  25  1   
 43  24  26  1   
 44  24  47  1   
 45  25  27  1   
 46  26  27  2   
 47  26  43  1   
 48  27  28  1   
 49  28  29  2   
 50  28  42  1   
 51  29  41  1   
@<TRIPOS>SUBSTRUCTURE
  1 Q101   5 GROUP 4 **** **** 0

# MOE 2011.10 (io_trps.svl 2011.10)

@<TRIPOS>MOLECULE
FXA101_6
49 51 1 0 0 
SMALL
USER_CHARGES


@<TRIPOS>ATOM
  1 N1       0.2000     9.9260    14.5910 N.am  1 Q101  -0.8960 
  2 S1      -0.9480     9.5520    13.5180 S.o2  1 Q101   1.3220 
  3 N2       2.5130     8.9140    16.9340 N.am  1 Q101  -0.3970 
  4 N3       7.0560     9.5160    21.5420 N.am  1 Q101  -0.4840 
  5 O3       0.9410    10.5520    17.3270 O.2   1 Q101  -0.6040 
  6 O4       6.7350    11.6120    20.8770 O.2   1 Q101  -0.6060 
  7 C7       6.7470     8.1170    21.2070 C.3   1 Q101   0.0840 
  8 C8       8.0050     9.7670    22.6380 C.3   1 Q101   0.0840 
  9 C12      0.6530     8.9240    15.5280 C.3   1 Q101   0.1690 
 10 C13      1.7040     7.9720    14.9460 C.3   1 Q101  -0.1080 
 11 C14      2.7030     7.7540    16.0760 C.3   1 Q101   0.1020 
 12 C15      3.4790     9.3130    17.9120 C.ar  1 Q101   0.0330 
 13 C21      4.8150     9.4820    17.5770 C.ar  1 Q101  -0.1060 
 14 C22      3.1090     9.5150    19.2330 C.ar  1 Q101   0.1210 
 15 C24      5.7510     9.8510    18.5220 C.ar  1 Q101  -0.0920 
 16 C26      4.0200     9.8840    20.2100 C.ar  1 Q101  -0.1400 
 17 C27      5.3530    10.0560    19.8350 C.ar  1 Q101  -0.1150 
 18 C28      6.4330    10.4320    20.7940 C.2   1 Q101   0.6760 
 19 C50      1.3570     9.5860    16.7060 C.2   1 Q101   0.6950 
 20 F1       1.8190     9.3430    19.5660 F     1 Q101  -0.1400 
 21 O1      -1.1230     8.1400    13.6660 O.2   1 Q101  -0.5930 
 22 CL1     -5.2010     5.0410    15.6910 Cl    1 Q101  -0.0550 
 23 C1      -4.4800     6.5950    15.9440 C.2   1 Q101   0.0330 
 24 C2      -4.1810     7.1680    17.1350 C.2   1 Q101  -0.1460 
 25 S2      -4.0690     7.5630    14.5840 S.3   1 Q101   0.0240 
 26 C3      -3.6100     8.4310    16.9590 C.2   1 Q101  -0.1130 
 27 C4      -3.4770     8.8100    15.6290 C.2   1 Q101  -0.0920 
 28 C5      -2.9090    10.0900    15.1900 C.2   1 Q101   0.0810 
 29 C6      -2.4140    10.3630    13.9840 C.2   1 Q101  -0.4200 
 30 O2      -0.4360    10.1170    12.3020 O.2   1 Q101  -0.5930 
 31 H142     3.7350     7.7020    15.7150 H     1 Q101   0.0600 
 32 H141     2.4640     6.8520    16.6480 H     1 Q101   0.0600 
 33 H132     1.2650     7.0350    14.5900 H     1 Q101   0.0720 
 34 H131     2.2100     8.4420    14.0940 H     1 Q101   0.0720 
 35 H83      7.4760     9.7040    23.5860 H     1 Q101   0.0490 
 36 H82      8.8030     9.0200    22.5970 H     1 Q101   0.0490 
 37 H81      8.4400    10.7550    22.5070 H     1 Q101   0.0490 
 38 H73      7.1050     7.9150    20.1940 H     1 Q101   0.0490 
 39 H72      7.2220     7.4370    21.9180 H     1 Q101   0.0490 
 40 H71      5.6620     7.9650    21.2240 H     1 Q101   0.0490 
 41 H6      -2.8650    11.0400    13.2730 H     1 Q101   0.1940 
 42 H5      -2.9680    10.8740    15.9450 H     1 Q101   0.1560 
 43 H3      -3.2810     9.0570    17.7830 H     1 Q101   0.1600 
 44 H26      3.6930    10.0400    21.2290 H     1 Q101   0.1600 
 45 H24      6.7910     9.9400    18.2390 H     1 Q101   0.1630 
 46 H21      5.1470     9.3110    16.5560 H     1 Q101   0.1530 
 47 H2      -4.3520     6.7120    18.1010 H     1 Q101   0.1720 
 48 H12     -0.1700     8.3300    15.9430 H     1 Q101   0.0910 
 49 H1       0.2310    10.8990    14.9060 H     1 Q101   0.4670 
@<TRIPOS>BOND
  1   1   2  am  
  2   1   9  1   
  3   1  49  1   
  4   2  21  2   
  5   2  29  1   
  6   2  30  2   
  7   3  11  1   
  8   3  12  1   
  9   3  19  am  
 10   4   7  1   
 11   4   8  1   
 12   4  18  am  
 13   5  19  2   
 14   6  18  2   
 15   7  38  1   
 16   7  39  1   
 17   7  40  1   
 18   8  35  1   
 19   8  36  1   
 20   8  37  1   
 21   9  10  1   
 22   9  19  1   
 23   9  48  1   
 24  10  11  1   
 25  10  33  1   
 26  10  34  1   
 27  11  31  1   
 28  11  32  1   
 29  12  13  ar  
 30  12  14  ar  
 31  13  15  ar  
 32  13  46  1   
 33  14  16  ar  
 34  14  20  1   
 35  15  17  ar  
 36  15  45  1   
 37  16  17  ar  
 38  16  44  1   
 39  17  18  1   
 40  22  23  1   
 41  23  24  2   
 42  23  25  1   
 43  24  26  1   
 44  24  47  1   
 45  25  27  1   
 46  26  27  2   
 47  26  43  1   
 48  27  28  1   
 49  28  29  2   
 50  28  42  1   
 51  29  41  1   
@<TRIPOS>SUBSTRUCTURE
  1 Q101  19 GROUP 4 **** **** 0

# MOE 2011.10 (io_trps.svl 2011.10)

@<TRIPOS>MOLECULE
FXA101_7
49 51 1 0 0 
SMALL
USER_CHARGES


@<TRIPOS>ATOM
  1 N1       6.5760     9.7990    20.2330 N.am  1 Q101  -0.8960 
  2 S1       7.4580     9.6580    21.5790 S.o2  1 Q101   1.3220 
  3 N2       3.8330     8.9320    18.3380 N.am  1 Q101  -0.3970 
  4 N3       1.7950     8.0520    12.1780 N.am  1 Q101  -0.4840 
  5 O3       6.0000     8.4280    17.7400 O.2   1 Q101  -0.6040 
  6 O4       0.5330     9.6890    12.9940 O.2   1 Q101  -0.6060 
  7 C7       0.7130     7.6030    11.2880 C.3   1 Q101   0.0840 
  8 C8       3.1600     7.5780    11.8950 C.3   1 Q101   0.0840 
  9 C12      5.4140     8.9590    20.0520 C.3   1 Q101   0.1690 
 10 C13      4.1170     9.5880    20.5720 C.3   1 Q101  -0.1080 
 11 C14      3.0590     9.2130    19.5390 C.3   1 Q101   0.1020 
 12 C15      3.2420     8.8940    17.0360 C.ar  1 Q101   0.0330 
 13 C21      3.0660    10.0510    16.2910 C.ar  1 Q101  -0.1060 
 14 C22      2.8000     7.6970    16.4920 C.ar  1 Q101   0.1210 
 15 C24      2.4810    10.0190    15.0410 C.ar  1 Q101  -0.0920 
 16 C26      2.2080     7.6250    15.2410 C.ar  1 Q101  -0.1400 
 17 C27      2.0580     8.8070    14.5150 C.ar  1 Q101  -0.1150 
 18 C28      1.4180     8.8670    13.1680 C.2   1 Q101   0.6760 
 19 C50      5.1550     8.7340    18.5670 C.2   1 Q101   0.6950 
 20 F1       2.9580     6.5740    17.2130 F     1 Q101  -0.1400 
 21 O1       8.4010    10.7310    21.4960 O.2   1 Q101  -0.5930 
 22 CL1     11.3090     7.3360    26.5080 Cl    1 Q101  -0.0550 
 23 C1      10.0920     8.2710    25.7060 C.2   1 Q101   0.0330 
 24 C2      10.1990     9.5560    25.2880 C.2   1 Q101  -0.1460 
 25 S2       8.5660     7.5540    25.3700 S.3   1 Q101   0.0240 
 26 C3       9.0170     9.9890    24.6820 C.2   1 Q101  -0.1130 
 27 C4       8.0160     9.0270    24.6440 C.2   1 Q101  -0.0920 
 28 C5       6.6860     9.2440    24.0620 C.2   1 Q101   0.0810 
 29 C6       6.4140     9.9170    22.9440 C.2   1 Q101  -0.4200 
 30 O2       7.8820     8.2870    21.5340 O.2   1 Q101  -0.5930 
 31 H142     2.3450    10.0230    19.3620 H     1 Q101   0.0600 
 32 H141     2.5240     8.3040    19.8320 H     1 Q101   0.0600 
 33 H132     3.8600     9.2420    21.5780 H     1 Q101   0.0720 
 34 H131     4.2160    10.6790    20.6140 H     1 Q101   0.0720 
 35 H83      3.2840     6.5840    12.3200 H     1 Q101   0.0490 
 36 H82      3.3110     7.5510    10.8120 H     1 Q101   0.0490 
 37 H81      3.8710     8.2730    12.3340 H     1 Q101   0.0490 
 38 H73      0.3070     8.4750    10.7680 H     1 Q101   0.0490 
 39 H72      1.0860     6.8720    10.5660 H     1 Q101   0.0490 
 40 H71     -0.0890     7.1520    11.8820 H     1 Q101   0.0490 
 41 H6       5.5840    10.5990    22.8250 H     1 Q101   0.1940 
 42 H5       5.8850     8.7460    24.6070 H     1 Q101   0.1560 
 43 H3       8.8920    10.9820    24.2610 H     1 Q101   0.1600 
 44 H26      1.8830     6.6720    14.8460 H     1 Q101   0.1600 
 45 H24      2.3250    10.9420    14.4990 H     1 Q101   0.1630 
 46 H21      3.3790    11.0120    16.6930 H     1 Q101   0.1530 
 47 H2      11.0820    10.1700    25.3970 H     1 Q101   0.1720 
 48 H12      5.5330     7.9680    20.5060 H     1 Q101   0.0910 
 49 H1       7.0750    10.0820    19.3860 H     1 Q101   0.4670 
@<TRIPOS>BOND
  1   1   2  am  
  2   1   9  1   
  3   1  49  1   
  4   2  21  2   
  5   2  29  1   
  6   2  30  2   
  7   3  11  1   
  8   3  12  1   
  9   3  19  am  
 10   4   7  1   
 11   4   8  1   
 12   4  18  am  
 13   5  19  2   
 14   6  18  2   
 15   7  38  1   
 16   7  39  1   
 17   7  40  1   
 18   8  35  1   
 19   8  36  1   
 20   8  37  1   
 21   9  10  1   
 22   9  19  1   
 23   9  48  1   
 24  10  11  1   
 25  10  33  1   
 26  10  34  1   
 27  11  31  1   
 28  11  32  1   
 29  12  13  ar  
 30  12  14  ar  
 31  13  15  ar  
 32  13  46  1   
 33  14  16  ar  
 34  14  20  1   
 35  15  17  ar  
 36  15  45  1   
 37  16  17  ar  
 38  16  44  1   
 39  17  18  1   
 40  22  23  1   
 41  23  24  2   
 42  23  25  1   
 43  24  26  1   
 44  24  47  1   
 45  25  27  1   
 46  26  27  2   
 47  26  43  1   
 48  27  28  1   
 49  28  29  2   
 50  28  42  1   
 51  29  41  1   
@<TRIPOS>SUBSTRUCTURE
  1 Q101  19 GROUP 4 **** **** 0

# MOE 2011.10 (io_trps.svl 2011.10)

@<TRIPOS>MOLECULE
FXA101_8
49 51 1 0 0 
SMALL
USER_CHARGES


@<TRIPOS>ATOM
  1 N1       5.6840     8.3390    22.9910 N.am  1 Q101  -0.8960 
  2 S1       6.2020     9.0710    24.3350 S.o2  1 Q101   1.3220 
  3 N2       4.9900     5.4640    21.2260 N.am  1 Q101  -0.3970 
  4 N3       3.9980     2.0500    15.8160 N.am  1 Q101  -0.4840 
  5 O3       6.9920     6.5940    21.0750 O.2   1 Q101  -0.6040 
  6 O4       5.9890     2.9570    15.4250 O.2   1 Q101  -0.6060 
  7 C7       3.5960     1.0180    16.7860 C.3   1 Q101   0.0840 
  8 C8       3.2240     2.1610    14.5700 C.3   1 Q101   0.0840 
  9 C12      5.5000     6.9060    22.9860 C.3   1 Q101   0.1690 
 10 C13      4.0350     6.4750    23.1140 C.3   1 Q101  -0.1080 
 11 C14      3.8920     5.2900    22.1660 C.3   1 Q101   0.1020 
 12 C15      5.0300     4.7970    19.9610 C.ar  1 Q101   0.0330 
 13 C21      4.1240     5.1050    18.9550 C.ar  1 Q101  -0.1060 
 14 C22      5.9620     3.8010    19.7130 C.ar  1 Q101   0.1210 
 15 C24      4.1510     4.4520    17.7400 C.ar  1 Q101  -0.0920 
 16 C26      6.0190     3.1220    18.5060 C.ar  1 Q101  -0.1400 
 17 C27      5.1000     3.4660    17.5140 C.ar  1 Q101  -0.1150 
 18 C28      5.0440     2.7980    16.1800 C.2   1 Q101   0.6760 
 19 C50      5.9480     6.3240    21.6510 C.2   1 Q101   0.6950 
 20 F1       6.8350     3.4910    20.6860 F     1 Q101  -0.1400 
 21 O1       5.0960     8.9760    25.2370 O.2   1 Q101  -0.5930 
 22 CL1     13.9370     7.3940    26.4140 Cl    1 Q101  -0.0550 
 23 C1      12.2270     7.6300    26.2780 C.2   1 Q101   0.0330 
 24 C2      11.2850     7.2890    27.1890 C.2   1 Q101  -0.1460 
 25 S2      11.5910     8.3760    24.8650 S.3   1 Q101   0.0240 
 26 C3      10.0040     7.6280    26.7430 C.2   1 Q101  -0.1130 
 27 C4       9.9830     8.2270    25.4900 C.2   1 Q101  -0.0920 
 28 C5       8.7610     8.6690    24.8090 C.2   1 Q101   0.0810 
 29 C6       7.5400     8.1600    24.9690 C.2   1 Q101  -0.4200 
 30 O2       6.6580    10.3410    23.8440 O.2   1 Q101  -0.5930 
 31 H142     2.9300     5.2880    21.6450 H     1 Q101   0.0600 
 32 H141     4.0290     4.3410    22.6940 H     1 Q101   0.0600 
 33 H132     3.7630     6.2230    24.1430 H     1 Q101   0.0720 
 34 H131     3.3730     7.2870    22.7890 H     1 Q101   0.0720 
 35 H83      3.5840     1.4190    13.8610 H     1 Q101   0.0490 
 36 H82      2.1660     1.9950    14.7910 H     1 Q101   0.0490 
 37 H81      3.3460     3.1640    14.1680 H     1 Q101   0.0490 
 38 H73      3.2570     1.5140    17.6990 H     1 Q101   0.0490 
 39 H72      2.7980     0.3950    16.3750 H     1 Q101   0.0490 
 40 H71      4.4590     0.3910    17.0340 H     1 Q101   0.0490 
 41 H6       7.3260     7.2170    25.4530 H     1 Q101   0.1940 
 42 H5       8.9110     9.5300    24.1590 H     1 Q101   0.1560 
 43 H3       9.1050     7.4560    27.3260 H     1 Q101   0.1600 
 44 H26      6.7660     2.3560    18.3460 H     1 Q101   0.1600 
 45 H24      3.4100     4.6890    16.9890 H     1 Q101   0.1630 
 46 H21      3.3640     5.8650    19.1210 H     1 Q101   0.1530 
 47 H2      11.4870     6.8220    28.1440 H     1 Q101   0.1720 
 48 H12      6.0860     6.4020    23.7640 H     1 Q101   0.0910 
 49 H1       5.9490     8.7730    22.1030 H     1 Q101   0.4670 
@<TRIPOS>BOND
  1   1   2  am  
  2   1   9  1   
  3   1  49  1   
  4   2  21  2   
  5   2  29  1   
  6   2  30  2   
  7   3  11  1   
  8   3  12  1   
  9   3  19  am  
 10   4   7  1   
 11   4   8  1   
 12   4  18  am  
 13   5  19  2   
 14   6  18  2   
 15   7  38  1   
 16   7  39  1   
 17   7  40  1   
 18   8  35  1   
 19   8  36  1   
 20   8  37  1   
 21   9  10  1   
 22   9  19  1   
 23   9  48  1   
 24  10  11  1   
 25  10  33  1   
 26  10  34  1   
 27  11  31  1   
 28  11  32  1   
 29  12  13  ar  
 30  12  14  ar  
 31  13  15  ar  
 32  13  46  1   
 33  14  16  ar  
 34  14  20  1   
 35  15  17  ar  
 36  15  45  1   
 37  16  17  ar  
 38  16  44  1   
 39  17  18  1   
 40  22  23  1   
 41  23  24  2   
 42  23  25  1   
 43  24  26  1   
 44  24  47  1   
 45  25  27  1   
 46  26  27  2   
 47  26  43  1   
 48  27  28  1   
 49  28  29  2   
 50  28  42  1   
 51  29  41  1   
@<TRIPOS>SUBSTRUCTURE
  1 Q101  19 GROUP 4 **** **** 0

# MOE 2011.10 (io_trps.svl 2011.10)

@<TRIPOS>MOLECULE
FXA101_9
49 51 1 0 0 
SMALL
USER_CHARGES


@<TRIPOS>ATOM
  1 N1       3.9610    13.3730    19.2020 N.am  1 Q101  -0.8960 
  2 S1       5.1330    12.2970    19.4830 S.o2  1 Q101   1.3220 
  3 N2       2.2730    14.3310    16.3560 N.am  1 Q101  -0.3970 
  4 N3       3.4380    18.0260    11.0780 N.am  1 Q101  -0.4840 
  5 O3       4.4600    13.6030    16.3510 O.2   1 Q101  -0.6040 
  6 O4       1.4090    17.1730    10.7690 O.2   1 Q101  -0.6060 
  7 C7       4.1920    17.4890     9.9350 C.3   1 Q101   0.0840 
  8 C8       3.8850    19.3030    11.6590 C.3   1 Q101   0.0840 
  9 C12      2.9550    13.0850    18.2060 C.3   1 Q101   0.1690 
 10 C13      1.5920    13.7140    18.5130 C.3   1 Q101  -0.1080 
 11 C14      1.0700    14.1960    17.1640 C.3   1 Q101   0.1020 
 12 C15      2.3040    15.0940    15.1460 C.ar  1 Q101   0.0330 
 13 C21      1.5250    14.7440    14.0530 C.ar  1 Q101  -0.1060 
 14 C22      3.1390    16.1950    15.0230 C.ar  1 Q101   0.1210 
 15 C24      1.5660    15.4690    12.8800 C.ar  1 Q101  -0.0920 
 16 C26      3.2080    16.9470    13.8620 C.ar  1 Q101  -0.1400 
 17 C27      2.4020    16.5720    12.7860 C.ar  1 Q101  -0.1150 
 18 C28      2.3980    17.2860    11.4750 C.2   1 Q101   0.6760 
 19 C50      3.3550    13.6900    16.8660 C.2   1 Q101   0.6950 
 20 F1       3.9030    16.5340    16.0750 F     1 Q101  -0.1400 
 21 O1       6.1150    13.0310    20.2200 O.2   1 Q101  -0.5930 
 22 CL1      9.9270     9.1570    23.7680 Cl    1 Q101  -0.0550 
 23 C1       8.5920     9.6070    22.7610 C.2   1 Q101   0.0330 
 24 C2       8.5540     9.5870    21.4070 C.2   1 Q101  -0.1460 
 25 S2       7.1300    10.1390    23.4920 S.3   1 Q101   0.0240 
 26 C3       7.3130    10.0200    20.9310 C.2   1 Q101  -0.1130 
 27 C4       6.4140    10.3660    21.9320 C.2   1 Q101  -0.0920 
 28 C5       5.0510    10.8510    21.6820 C.2   1 Q101   0.0810 
 29 C6       4.4850    11.0370    20.4900 C.2   1 Q101  -0.4200 
 30 O2       5.4110    11.7870    18.1700 O.2   1 Q101  -0.5930 
 31 H142     0.5420    15.1520    17.2390 H     1 Q101   0.0600 
 32 H141     0.4180    13.4480    16.7010 H     1 Q101   0.0600 
 33 H132     0.9080    13.0110    18.9990 H     1 Q101   0.0720 
 34 H131     1.7140    14.5720    19.1860 H     1 Q101   0.0720 
 35 H83      4.7040    19.1110    12.3480 H     1 Q101   0.0490 
 36 H82      4.2120    19.9660    10.8530 H     1 Q101   0.0490 
 37 H81      3.0490    19.7650    12.1780 H     1 Q101   0.0490 
 38 H73      3.5340    17.4730     9.0620 H     1 Q101   0.0490 
 39 H72      5.0740    18.1020     9.7330 H     1 Q101   0.0490 
 40 H71      4.5030    16.4610    10.1500 H     1 Q101   0.0490 
 41 H6       3.6630    10.4520    20.1040 H     1 Q101   0.1940 
 42 H5       4.4730    11.0130    22.5910 H     1 Q101   0.1560 
 43 H3       7.0630    10.0670    19.8750 H     1 Q101   0.1600 
 44 H26      3.8660    17.8040    13.8050 H     1 Q101   0.1600 
 45 H24      0.9740    15.1500    12.0330 H     1 Q101   0.1630 
 46 H21      0.8750    13.8740    14.1040 H     1 Q101   0.1530 
 47 H2       9.3680     9.2720    20.7690 H     1 Q101   0.1720 
 48 H12      2.8190    12.0100    18.0410 H     1 Q101   0.0910 
 49 H1       4.2010    14.3570    19.3440 H     1 Q101   0.4670 
@<TRIPOS>BOND
  1   1   2  am  
  2   1   9  1   
  3   1  49  1   
  4   2  21  2   
  5   2  29  1   
  6   2  30  2   
  7   3  11  1   
  8   3  12  1   
  9   3  19  am  
 10   4   7  1   
 11   4   8  1   
 12   4  18  am  
 13   5  19  2   
 14   6  18  2   
 15   7  38  1   
 16   7  39  1   
 17   7  40  1   
 18   8  35  1   
 19   8  36  1   
 20   8  37  1   
 21   9  10  1   
 22   9  19  1   
 23   9  48  1   
 24  10  11  1   
 25  10  33  1   
 26  10  34  1   
 27  11  31  1   
 28  11  32  1   
 29  12  13  ar  
 30  12  14  ar  
 31  13  15  ar  
 32  13  46  1   
 33  14  16  ar  
 34  14  20  1   
 35  15  17  ar  
 36  15  45  1   
 37  16  17  ar  
 38  16  44  1   
 39  17  18  1   
 40  22  23  1   
 41  23  24  2   
 42  23  25  1   
 43  24  26  1   
 44  24  47  1   
 45  25  27  1   
 46  26  27  2   
 47  26  43  1   
 48  27  28  1   
 49  28  29  2   
 50  28  42  1   
 51  29  41  1   
@<TRIPOS>SUBSTRUCTURE
  1 Q101   5 GROUP 4 **** **** 0

# MOE 2011.10 (io_trps.svl 2011.10)

@<TRIPOS>MOLECULE
FXA101_10
49 51 1 0 0 
SMALL
USER_CHARGES


@<TRIPOS>ATOM
  1 N1       5.0860    10.1970    21.8120 N.am  1 Q101  -0.8960 
  2 S1       6.6940    10.3460    21.7600 S.o2  1 Q101   1.3220 
  3 N2       2.7460     8.0700    23.1760 N.am  1 Q101  -0.3970 
  4 N3      -2.6460     6.3720    26.3760 N.am  1 Q101  -0.4840 
  5 O3       2.2190     9.7570    21.6970 O.2   1 Q101  -0.6040 
  6 O4      -3.0180     8.5030    25.8700 O.2   1 Q101  -0.6060 
  7 C7      -3.0740     5.3090    25.4530 C.3   1 Q101   0.0840 
  8 C8      -2.6390     6.0690    27.8170 C.3   1 Q101   0.0840 
  9 C12      4.4950     8.8800    21.8630 C.3   1 Q101   0.1690 
 10 C13      5.0800     7.9880    22.9630 C.3   1 Q101  -0.1080 
 11 C14      3.8830     7.2350    23.5340 C.3   1 Q101   0.1020 
 12 C15      1.4700     7.9440    23.8120 C.ar  1 Q101   0.0330 
 13 C21      1.2990     8.2620    25.1520 C.ar  1 Q101  -0.1060 
 14 C22      0.3710     7.4710    23.1100 C.ar  1 Q101   0.1210 
 15 C24      0.0730     8.1250    25.7710 C.ar  1 Q101  -0.0920 
 16 C26     -0.8740     7.3190    23.6980 C.ar  1 Q101  -0.1400 
 17 C27     -1.0120     7.6590    25.0440 C.ar  1 Q101  -0.1150 
 18 C28     -2.2940     7.5230    25.7970 C.2   1 Q101   0.6760 
 19 C50      3.0140     8.9830    22.2100 C.2   1 Q101   0.6950 
 20 F1       0.5330     7.1520    21.8150 F     1 Q101  -0.1400 
 21 O1       6.9090    11.7120    21.3930 O.2   1 Q101  -0.5930 
 22 CL1     11.5920     6.9780    27.3590 Cl    1 Q101  -0.0550 
 23 C1      10.3390     7.7290    26.4290 C.2   1 Q101   0.0330 
 24 C2       9.0540     7.9290    26.8100 C.2   1 Q101  -0.1460 
 25 S2      10.6960     8.3080    24.8500 S.3   1 Q101   0.0240 
 26 C3       8.3220     8.5630    25.8020 C.2   1 Q101  -0.1130 
 27 C4       9.0600     8.8410    24.6570 C.2   1 Q101  -0.0920 
 28 C5       8.5120     9.4970    23.4640 C.2   1 Q101   0.0810 
 29 C6       7.3170    10.0780    23.3600 C.2   1 Q101  -0.4200 
 30 O2       7.0810     9.2700    20.8920 O.2   1 Q101  -0.5930 
 31 H142     3.9490     7.1100    24.6190 H     1 Q101   0.0600 
 32 H141     3.7650     6.2580    23.0540 H     1 Q101   0.0600 
 33 H132     5.8560     7.3160    22.5860 H     1 Q101   0.0720 
 34 H131     5.5320     8.6050    23.7500 H     1 Q101   0.0720 
 35 H83     -3.6450     6.1950    28.2100 H     1 Q101   0.0490 
 36 H82     -2.2980     5.0400    27.9640 H     1 Q101   0.0490 
 37 H81     -1.9470     6.7440    28.3140 H     1 Q101   0.0490 
 38 H73     -2.2250     5.0350    24.8220 H     1 Q101   0.0490 
 39 H72     -3.4300     4.4370    26.0080 H     1 Q101   0.0490 
 40 H71     -3.8760     5.6840    24.8080 H     1 Q101   0.0490 
 41 H6       6.7060    10.3790    24.1990 H     1 Q101   0.1940 
 42 H5       9.2080     9.5300    22.6270 H     1 Q101   0.1560 
 43 H3       7.2750     8.8320    25.9040 H     1 Q101   0.1600 
 44 H26     -1.7100     6.9550    23.1160 H     1 Q101   0.1600 
 45 H24     -0.0220     8.3470    26.8260 H     1 Q101   0.1630 
 46 H21      2.1420     8.6140    25.7400 H     1 Q101   0.1530 
 47 H2       8.6410     7.6470    27.7680 H     1 Q101   0.1720 
 48 H12      4.5600     8.3500    20.9060 H     1 Q101   0.0910 
 49 H1       4.5440    10.9280    21.3430 H     1 Q101   0.4670 
@<TRIPOS>BOND
  1   1   2  am  
  2   1   9  1   
  3   1  49  1   
  4   2  21  2   
  5   2  29  1   
  6   2  30  2   
  7   3  11  1   
  8   3  12  1   
  9   3  19  am  
 10   4   7  1   
 11   4   8  1   
 12   4  18  am  
 13   5  19  2   
 14   6  18  2   
 15   7  38  1   
 16   7  39  1   
 17   7  40  1   
 18   8  35  1   
 19   8  36  1   
 20   8  37  1   
 21   9  10  1   
 22   9  19  1   
 23   9  48  1   
 24  10  11  1   
 25  10  33  1   
 26  10  34  1   
 27  11  31  1   
 28  11  32  1   
 29  12  13  ar  
 30  12  14  ar  
 31  13  15  ar  
 32  13  46  1   
 33  14  16  ar  
 34  14  20  1   
 35  15  17  ar  
 36  15  45  1   
 37  16  17  ar  
 38  16  44  1   
 39  17  18  1   
 40  22  23  1   
 41  23  24  2   
 42  23  25  1   
 43  24  26  1   
 44  24  47  1   
 45  25  27  1   
 46  26  27  2   
 47  26  43  1   
 48  27  28  1   
 49  28  29  2   
 50  28  42  1   
 51  29  41  1   
@<TRIPOS>SUBSTRUCTURE
  1 Q101  11 GROUP 4 **** **** 0

# MOE 2011.10 (io_trps.svl 2011.10)

@<TRIPOS>MOLECULE
FXA101_11
49 51 1 0 0 
SMALL
USER_CHARGES


@<TRIPOS>ATOM
  1 N1       6.3970    10.5030    22.6140 N.am  1 Q101  -0.8960 
  2 S1       7.7530     9.8410    23.1890 S.o2  1 Q101   1.3220 
  3 N2       4.4180    10.0230    19.8350 N.am  1 Q101  -0.3970 
  4 N3       2.7770    12.2110    13.9490 N.am  1 Q101  -0.4840 
  5 O3       6.7130     9.8200    19.8100 O.2   1 Q101  -0.6040 
  6 O4       4.2770    10.6370    13.4850 O.2   1 Q101  -0.6060 
  7 C7       1.5550    12.3250    14.7610 C.3   1 Q101   0.0840 
  8 C8       2.9560    13.1600    12.8380 C.3   1 Q101   0.0840 
  9 C12      5.4500     9.6790    21.8980 C.3   1 Q101   0.1690 
 10 C13      3.9890    10.0720    22.1400 C.3   1 Q101  -0.1080 
 11 C14      3.3140     9.9290    20.7810 C.3   1 Q101   0.1020 
 12 C15      4.2170    10.3020    18.4470 C.ar  1 Q101   0.0330 
 13 C21      4.9300    11.3040    17.8030 C.ar  1 Q101  -0.1060 
 14 C22      3.2790     9.5940    17.7090 C.ar  1 Q101   0.1210 
 15 C24      4.7260    11.5850    16.4670 C.ar  1 Q101  -0.0920 
 16 C26      3.0460     9.8490    16.3680 C.ar  1 Q101  -0.1400 
 17 C27      3.7890    10.8560    15.7500 C.ar  1 Q101  -0.1150 
 18 C28      3.6190    11.2400    14.3170 C.2   1 Q101   0.6760 
 19 C50      5.6400     9.8460    20.3950 C.2   1 Q101   0.6950 
 20 F1       2.5790     8.6310    18.3300 F     1 Q101  -0.1400 
 21 O1       8.7080    10.9060    23.1510 O.2   1 Q101  -0.5930 
 22 CL1     13.3830     7.2820    26.8100 Cl    1 Q101  -0.0550 
 23 C1      11.9240     7.7410    25.9980 C.2   1 Q101   0.0330 
 24 C2      11.8210     8.3050    24.7700 C.2   1 Q101  -0.1460 
 25 S2      10.4120     7.4760    26.7720 S.3   1 Q101   0.0240 
 26 C3      10.4860     8.5430    24.4350 C.2   1 Q101  -0.1130 
 27 C4       9.5790     8.1560    25.4140 C.2   1 Q101  -0.0920 
 28 C5       8.1240     8.3060    25.2950 C.2   1 Q101   0.0810 
 29 C6       7.4760     9.3780    24.8410 C.2   1 Q101  -0.4200 
 30 O2       7.9050     8.6740    22.3670 O.2   1 Q101  -0.5930 
 31 H142     2.5760    10.7160    20.5980 H     1 Q101   0.0600 
 32 H141     2.8440     8.9460    20.6740 H     1 Q101   0.0600 
 33 H132     3.5140     9.4570    22.9100 H     1 Q101   0.0720 
 34 H131     3.9280    11.1170    22.4710 H     1 Q101   0.0720 
 35 H83      2.4020    12.8010    11.9730 H     1 Q101   0.0490 
 36 H82      2.5870    14.1430    13.1460 H     1 Q101   0.0490 
 37 H81      4.0150    13.2360    12.6080 H     1 Q101   0.0490 
 38 H73      1.8410    12.5990    15.7800 H     1 Q101   0.0490 
 39 H72      0.8830    13.0770    14.3410 H     1 Q101   0.0490 
 40 H71      1.0450    11.3560    14.7950 H     1 Q101   0.0490 
 41 H6       6.7820     9.9680    25.4220 H     1 Q101   0.1940 
 42 H5       7.5700     7.4100    25.5710 H     1 Q101   0.1560 
 43 H3      10.1770     8.9760    23.4880 H     1 Q101   0.1600 
 44 H26      2.3110     9.2710    15.8230 H     1 Q101   0.1600 
 45 H24      5.2710    12.3950    16.0020 H     1 Q101   0.1630 
 46 H21      5.6570    11.8950    18.3540 H     1 Q101   0.1530 
 47 H2      12.6560     8.5380    24.1240 H     1 Q101   0.1720 
 48 H12      5.5690     8.6110    22.1160 H     1 Q101   0.0910 
 49 H1       6.4480    11.4880    22.3420 H     1 Q101   0.4670 
@<TRIPOS>BOND
  1   1   2  am  
  2   1   9  1   
  3   1  49  1   
  4   2  21  2   
  5   2  29  1   
  6   2  30  2   
  7   3  11  1   
  8   3  12  1   
  9   3  19  am  
 10   4   7  1   
 11   4   8  1   
 12   4  18  am  
 13   5  19  2   
 14   6  18  2   
 15   7  38  1   
 16   7  39  1   
 17   7  40  1   
 18   8  35  1   
 19   8  36  1   
 20   8  37  1   
 21   9  10  1   
 22   9  19  1   
 23   9  48  1   
 24  10  11  1   
 25  10  33  1   
 26  10  34  1   
 27  11  31  1   
 28  11  32  1   
 29  12  13  ar  
 30  12  14  ar  
 31  13  15  ar  
 32  13  46  1   
 33  14  16  ar  
 34  14  20  1   
 35  15  17  ar  
 36  15  45  1   
 37  16  17  ar  
 38  16  44  1   
 39  17  18  1   
 40  22  23  1   
 41  23  24  2   
 42  23  25  1   
 43  24  26  1   
 44  24  47  1   
 45  25  27  1   
 46  26  27  2   
 47  26  43  1   
 48  27  28  1   
 49  28  29  2   
 50  28  42  1   
 51  29  41  1   
@<TRIPOS>SUBSTRUCTURE
  1 Q101  19 GROUP 4 **** **** 0

# MOE 2011.10 (io_trps.svl 2011.10)

@<TRIPOS>MOLECULE
FXA101_12
49 51 1 0 0 
SMALL
USER_CHARGES


@<TRIPOS>ATOM
  1 N1       6.4800     8.8530    23.0870 N.am  1 Q101  -0.8960 
  2 S1       6.2390     8.5790    24.6600 S.o2  1 Q101   1.3220 
  3 N2       6.8900    11.0250    20.4450 N.am  1 Q101  -0.3970 
  4 N3       4.6660    12.1860    14.4910 N.am  1 Q101  -0.4840 
  5 O3       4.9040     9.9540    20.9120 O.2   1 Q101  -0.6040 
  6 O4       6.8550    12.0820    14.1230 O.2   1 Q101  -0.6060 
  7 C7       4.3760    13.5120    13.9210 C.3   1 Q101   0.0840 
  8 C8       3.5700    11.2040    14.5410 C.3   1 Q101   0.0840 
  9 C12      6.6380    10.2090    22.6150 C.3   1 Q101   0.1690 
 10 C13      8.1000    10.6220    22.4130 C.3   1 Q101  -0.1080 
 11 C14      8.0980    11.4530    21.1350 C.3   1 Q101   0.1020 
 12 C15      6.6740    11.2700    19.0520 C.ar  1 Q101   0.0330 
 13 C21      5.7860    12.2460    18.6210 C.ar  1 Q101  -0.1060 
 14 C22      7.3270    10.5140    18.0900 C.ar  1 Q101   0.1210 
 15 C24      5.5640    12.4720    17.2780 C.ar  1 Q101  -0.0920 
 16 C26      7.1290    10.7110    16.7330 C.ar  1 Q101  -0.1400 
 17 C27      6.2380    11.7090    16.3360 C.ar  1 Q101  -0.1150 
 18 C28      5.9230    12.0070    14.9070 C.2   1 Q101   0.6760 
 19 C50      6.0090    10.3620    21.2350 C.2   1 Q101   0.6950 
 20 F1       8.1800     9.5610    18.5010 F     1 Q101  -0.1400 
 21 O1       7.2410     9.3650    25.3120 O.2   1 Q101  -0.5930 
 22 CL1     -1.3180    10.5610    26.1460 Cl    1 Q101  -0.0550 
 23 C1       0.0070     9.9000    25.2490 C.2   1 Q101   0.0330 
 24 C2      -0.0560     9.2690    24.0520 C.2   1 Q101  -0.1460 
 25 S2       1.6000    10.0270    25.8860 S.3   1 Q101   0.0240 
 26 C3       1.2120     8.8650    23.6260 C.2   1 Q101  -0.1130 
 27 C4       2.2350     9.1930    24.5080 C.2   1 Q101  -0.0920 
 28 C5       3.6490     8.8720    24.2850 C.2   1 Q101   0.0810 
 29 C6       4.6670     9.1890    25.0840 C.2   1 Q101  -0.4200 
 30 O2       6.2490     7.1450    24.7340 O.2   1 Q101  -0.5930 
 31 H142     8.9840    11.2700    20.5190 H     1 Q101   0.0600 
 32 H141     8.0160    12.5220    21.3570 H     1 Q101   0.0600 
 33 H132     8.5000    11.1720    23.2690 H     1 Q101   0.0720 
 34 H131     8.7270     9.7330    22.2710 H     1 Q101   0.0720 
 35 H83      2.9600    11.3990    15.4200 H     1 Q101   0.0490 
 36 H82      2.9690    11.2940    13.6320 H     1 Q101   0.0490 
 37 H81      3.9960    10.2050    14.5850 H     1 Q101   0.0490 
 38 H73      4.9720    13.6360    13.0130 H     1 Q101   0.0490 
 39 H72      3.3120    13.6070    13.6910 H     1 Q101   0.0490 
 40 H71      4.6670    14.2900    14.6340 H     1 Q101   0.0490 
 41 H6       4.5850     9.8070    25.9660 H     1 Q101   0.1940 
 42 H5       3.8240     8.2730    23.3920 H     1 Q101   0.1560 
 43 H3       1.3910     8.3550    22.6850 H     1 Q101   0.1600 
 44 H26      7.6630    10.1080    16.0110 H     1 Q101   0.1600 
 45 H24      4.8400    13.2150    16.9730 H     1 Q101   0.1630 
 46 H21      5.2390    12.8430    19.3460 H     1 Q101   0.1530 
 47 H2      -0.9630     9.1030    23.4870 H     1 Q101   0.1720 
 48 H12      6.1510    10.9430    23.2680 H     1 Q101   0.0910 
 49 H1       6.0560     8.1850    22.4370 H     1 Q101   0.4670 
@<TRIPOS>BOND
  1   1   2  am  
  2   1   9  1   
  3   1  49  1   
  4   2  21  2   
  5   2  29  1   
  6   2  30  2   
  7   3  11  1   
  8   3  12  1   
  9   3  19  am  
 10   4   7  1   
 11   4   8  1   
 12   4  18  am  
 13   5  19  2   
 14   6  18  2   
 15   7  38  1   
 16   7  39  1   
 17   7  40  1   
 18   8  35  1   
 19   8  36  1   
 20   8  37  1   
 21   9  10  1   
 22   9  19  1   
 23   9  48  1   
 24  10  11  1   
 25  10  33  1   
 26  10  34  1   
 27  11  31  1   
 28  11  32  1   
 29  12  13  ar  
 30  12  14  ar  
 31  13  15  ar  
 32  13  46  1   
 33  14  16  ar  
 34  14  20  1   
 35  15  17  ar  
 36  15  45  1   
 37  16  17  ar  
 38  16  44  1   
 39  17  18  1   
 40  22  23  1   
 41  23  24  2   
 42  23  25  1   
 43  24  26  1   
 44  24  47  1   
 45  25  27  1   
 46  26  27  2   
 47  26  43  1   
 48  27  28  1   
 49  28  29  2   
 50  28  42  1   
 51  29  41  1   
@<TRIPOS>SUBSTRUCTURE
  1 Q101   5 GROUP 4 **** **** 0

# MOE 2011.10 (io_trps.svl 2011.10)

@<TRIPOS>MOLECULE
FXA101_13
49 51 1 0 0 
SMALL
USER_CHARGES


@<TRIPOS>ATOM
  1 N1       5.1130     9.1000    22.7730 N.am  1 Q101  -0.8960 
  2 S1       6.5950     9.7360    22.6780 S.o2  1 Q101   1.3220 
  3 N2       2.9190     6.5050    22.2070 N.am  1 Q101  -0.3970 
  4 N3      -3.3170     5.7290    20.4300 N.am  1 Q101  -0.4840 
  5 O3       3.0920     8.3450    20.8310 O.2   1 Q101  -0.6040 
  6 O4      -2.7180     3.7570    21.2620 O.2   1 Q101  -0.6060 
  7 C7      -2.7750     6.9860    19.8900 C.3   1 Q101   0.0840 
  8 C8      -4.7690     5.5050    20.3270 C.3   1 Q101   0.0840 
  9 C12      4.8970     7.7320    22.3610 C.3   1 Q101   0.1690 
 10 C13      4.8420     6.7420    23.5280 C.3   1 Q101  -0.1080 
 11 C14      3.7320     5.7640    23.1600 C.3   1 Q101   0.1020 
 12 C15      1.5820     6.1200    21.8740 C.ar  1 Q101   0.0330 
 13 C21      0.6100     5.9740    22.8540 C.ar  1 Q101  -0.1060 
 14 C22      1.2280     5.8520    20.5600 C.ar  1 Q101   0.1210 
 15 C24     -0.6760     5.5860    22.5360 C.ar  1 Q101  -0.0920 
 16 C26     -0.0520     5.4600    20.2040 C.ar  1 Q101  -0.1400 
 17 C27     -1.0080     5.3340    21.2130 C.ar  1 Q101  -0.1150 
 18 C28     -2.4140     4.9010    20.9630 C.2   1 Q101   0.6760 
 19 C50      3.5360     7.5960    21.6880 C.2   1 Q101   0.6950 
 20 F1       2.1670     5.9820    19.6090 F     1 Q101  -0.1400 
 21 O1       6.3980    11.1290    22.9320 O.2   1 Q101  -0.5930 
 22 CL1     13.4240     7.3800    26.5330 Cl    1 Q101  -0.0550 
 23 C1      11.8270     7.8400    26.0460 C.2   1 Q101   0.0330 
 24 C2      10.6990     7.7740    26.7930 C.2   1 Q101  -0.1460 
 25 S2      11.5760     8.4550    24.4600 S.3   1 Q101   0.0240 
 26 C3       9.5890     8.2260    26.0740 C.2   1 Q101  -0.1130 
 27 C4       9.8840     8.6330    24.7780 C.2   1 Q101  -0.0920 
 28 C5       8.8870     9.1420    23.8290 C.2   1 Q101   0.0810 
 29 C6       7.5630     9.0520    23.9500 C.2   1 Q101  -0.4200 
 30 O2       7.0550     9.2670    21.4010 O.2   1 Q101  -0.5930 
 31 H142     3.1380     5.4630    24.0280 H     1 Q101   0.0600 
 32 H141     4.1350     4.8760    22.6620 H     1 Q101   0.0600 
 33 H132     5.8010     6.2420    23.6960 H     1 Q101   0.0720 
 34 H131     4.5770     7.2640    24.4560 H     1 Q101   0.0720 
 35 H83     -5.2650     6.0190    21.1480 H     1 Q101   0.0490 
 36 H82     -5.1220     5.8900    19.3670 H     1 Q101   0.0490 
 37 H81     -4.9640     4.4370    20.3720 H     1 Q101   0.0490 
 38 H73     -2.1140     6.7470    19.0520 H     1 Q101   0.0490 
 39 H72     -3.5840     7.6420    19.5570 H     1 Q101   0.0490 
 40 H71     -2.1860     7.4930    20.6600 H     1 Q101   0.0490 
 41 H6       7.0530     8.5750    24.7730 H     1 Q101   0.1940 
 42 H5       9.3220     9.6810    22.9870 H     1 Q101   0.1560 
 43 H3       8.5880     8.2730    26.4900 H     1 Q101   0.1600 
 44 H26     -0.2950     5.2670    19.1670 H     1 Q101   0.1600 
 45 H24     -1.4030     5.4460    23.3250 H     1 Q101   0.1630 
 46 H21      0.8560     6.1530    23.8970 H     1 Q101   0.1530 
 47 H2      10.6540     7.4280    27.8170 H     1 Q101   0.1720 
 48 H12      5.6440     7.3860    21.6380 H     1 Q101   0.0910 
 49 H1       4.3300     9.7470    22.6520 H     1 Q101   0.4670 
@<TRIPOS>BOND
  1   1   2  am  
  2   1   9  1   
  3   1  49  1   
  4   2  21  2   
  5   2  29  1   
  6   2  30  2   
  7   3  11  1   
  8   3  12  1   
  9   3  19  am  
 10   4   7  1   
 11   4   8  1   
 12   4  18  am  
 13   5  19  2   
 14   6  18  2   
 15   7  38  1   
 16   7  39  1   
 17   7  40  1   
 18   8  35  1   
 19   8  36  1   
 20   8  37  1   
 21   9  10  1   
 22   9  19  1   
 23   9  48  1   
 24  10  11  1   
 25  10  33  1   
 26  10  34  1   
 27  11  31  1   
 28  11  32  1   
 29  12  13  ar  
 30  12  14  ar  
 31  13  15  ar  
 32  13  46  1   
 33  14  16  ar  
 34  14  20  1   
 35  15  17  ar  
 36  15  45  1   
 37  16  17  ar  
 38  16  44  1   
 39  17  18  1   
 40  22  23  1   
 41  23  24  2   
 42  23  25  1   
 43  24  26  1   
 44  24  47  1   
 45  25  27  1   
 46  26  27  2   
 47  26  43  1   
 48  27  28  1   
 49  28  29  2   
 50  28  42  1   
 51  29  41  1   
@<TRIPOS>SUBSTRUCTURE
  1 Q101  19 GROUP 4 **** **** 0

# MOE 2011.10 (io_trps.svl 2011.10)

@<TRIPOS>MOLECULE
FXA101_14
49 51 1 0 0 
SMALL
USER_CHARGES


@<TRIPOS>ATOM
  1 N1       0.2290    10.8500    18.1530 N.am  1 Q101  -0.8960 
  2 S1      -0.6730    11.0730    16.8320 S.o2  1 Q101   1.3220 
  3 N2       3.1850    11.2520    19.8750 N.am  1 Q101  -0.3970 
  4 N3       7.3670     8.2190    23.7990 N.am  1 Q101  -0.4840 
  5 O3       2.4350     9.2160    19.0970 O.2   1 Q101  -0.6040 
  6 O4       6.7460     9.9710    25.0170 O.2   1 Q101  -0.6060 
  7 C7       7.8730     7.5820    25.0250 C.3   1 Q101   0.0840 
  8 C8       7.6950     7.5870    22.5100 C.3   1 Q101   0.0840 
  9 C12      1.5960    11.3160    18.1690 C.3   1 Q101   0.1690 
 10 C13      1.7560    12.7270    18.7440 C.3   1 Q101  -0.1080 
 11 C14      3.0320    12.6680    19.5770 C.3   1 Q101   0.1020 
 12 C15      4.0330    10.7760    20.9240 C.ar  1 Q101   0.0330 
 13 C21      5.3960    11.0400    20.9260 C.ar  1 Q101  -0.1060 
 14 C22      3.5190    10.0080    21.9580 C.ar  1 Q101   0.1210 
 15 C24      6.2170    10.5680    21.9280 C.ar  1 Q101  -0.0920 
 16 C26      4.3130     9.5160    22.9820 C.ar  1 Q101  -0.1400 
 17 C27      5.6760     9.8110    22.9570 C.ar  1 Q101  -0.1150 
 18 C28      6.6400     9.3240    23.9880 C.2   1 Q101   0.6760 
 19 C50      2.4390    10.4380    19.0860 C.2   1 Q101   0.6950 
 20 F1       2.2020     9.7400    21.9570 F     1 Q101  -0.1400 
 21 O1      -2.0150    10.8680    17.2830 O.2   1 Q101  -0.5930 
 22 CL1     -2.7650     9.9610    10.8420 Cl    1 Q101  -0.0550 
 23 C1      -2.4990    10.8620    12.2970 C.2   1 Q101   0.0330 
 24 C2      -3.4040    11.1140    13.2730 C.2   1 Q101  -0.1460 
 25 S2      -0.9450    11.5310    12.5990 S.3   1 Q101   0.0240 
 26 C3      -2.8410    11.8760    14.3000 C.2   1 Q101  -0.1130 
 27 C4      -1.5040    12.1980    14.0950 C.2   1 Q101  -0.0920 
 28 C5      -0.6970    12.9920    15.0290 C.2   1 Q101   0.0810 
 29 C6      -0.4870    12.7230    16.3170 C.2   1 Q101  -0.4200 
 30 O2      -0.0620    10.1870    15.8820 O.2   1 Q101  -0.5930 
 31 H142     2.9540    13.2540    20.4980 H     1 Q101   0.0600 
 32 H141     3.8990    13.0010    18.9980 H     1 Q101   0.0600 
 33 H132     1.8010    13.4930    17.9640 H     1 Q101   0.0720 
 34 H131     0.9060    12.9700    19.3930 H     1 Q101   0.0720 
 35 H83      8.6920     7.9000    22.2070 H     1 Q101   0.0490 
 36 H82      7.6550     6.5000    22.6250 H     1 Q101   0.0490 
 37 H81      6.9580     7.8920    21.7720 H     1 Q101   0.0490 
 38 H73      7.0200     7.2360    25.6140 H     1 Q101   0.0490 
 39 H72      8.5290     6.7430    24.7800 H     1 Q101   0.0490 
 40 H71      8.4260     8.3180    25.6190 H     1 Q101   0.0490 
 41 H6      -0.1980    13.4550    17.0580 H     1 Q101   0.1940 
 42 H5      -0.2030    13.8440    14.5630 H     1 Q101   0.1560 
 43 H3      -3.3870    12.1770    15.1880 H     1 Q101   0.1600 
 44 H26      3.8740     8.9270    23.7760 H     1 Q101   0.1600 
 45 H24      7.2810    10.7600    21.8840 H     1 Q101   0.1630 
 46 H21      5.8390    11.6200    20.1190 H     1 Q101   0.1530 
 47 H2      -4.4290    10.7680    13.2710 H     1 Q101   0.1720 
 48 H12      2.0660    11.2830    17.1790 H     1 Q101   0.0910 
 49 H1       0.0180    10.0220    18.7160 H     1 Q101   0.4670 
@<TRIPOS>BOND
  1   1   2  am  
  2   1   9  1   
  3   1  49  1   
  4   2  21  2   
  5   2  29  1   
  6   2  30  2   
  7   3  11  1   
  8   3  12  1   
  9   3  19  am  
 10   4   7  1   
 11   4   8  1   
 12   4  18  am  
 13   5  19  2   
 14   6  18  2   
 15   7  38  1   
 16   7  39  1   
 17   7  40  1   
 18   8  35  1   
 19   8  36  1   
 20   8  37  1   
 21   9  10  1   
 22   9  19  1   
 23   9  48  1   
 24  10  11  1   
 25  10  33  1   
 26  10  34  1   
 27  11  31  1   
 28  11  32  1   
 29  12  13  ar  
 30  12  14  ar  
 31  13  15  ar  
 32  13  46  1   
 33  14  16  ar  
 34  14  20  1   
 35  15  17  ar  
 36  15  45  1   
 37  16  17  ar  
 38  16  44  1   
 39  17  18  1   
 40  22  23  1   
 41  23  24  2   
 42  23  25  1   
 43  24  26  1   
 44  24  47  1   
 45  25  27  1   
 46  26  27  2   
 47  26  43  1   
 48  27  28  1   
 49  28  29  2   
 50  28  42  1   
 51  29  41  1   
@<TRIPOS>SUBSTRUCTURE
  1 Q101  19 GROUP 4 **** **** 0

# MOE 2011.10 (io_trps.svl 2011.10)

@<TRIPOS>MOLECULE
FXA101_15
49 51 1 0 0 
SMALL
USER_CHARGES


@<TRIPOS>ATOM
  1 N1       7.1570     9.2160    21.7290 N.am  1 Q101  -0.8960 
  2 S1       8.1330     8.7140    22.9140 S.o2  1 Q101   1.3220 
  3 N2       4.7440     8.1100    19.5340 N.am  1 Q101  -0.3970 
  4 N3       2.3730     6.4250    13.7080 N.am  1 Q101  -0.4840 
  5 O3       6.8080     7.1120    19.7600 O.2   1 Q101  -0.6040 
  6 O4       4.4640     5.6730    13.6650 O.2   1 Q101  -0.6060 
  7 C7       2.2940     6.1200    12.2710 C.3   1 Q101   0.0840 
  8 C8       1.1400     6.8520    14.3900 C.3   1 Q101   0.0840 
  9 C12      5.8940     8.5480    21.5150 C.3   1 Q101   0.1690 
 10 C13      4.7020     9.5050    21.4190 C.3   1 Q101  -0.1080 
 11 C14      3.8250     8.9280    20.3130 C.3   1 Q101   0.1020 
 12 C15      4.4450     7.6740    18.2050 C.ar  1 Q101   0.0330 
 13 C21      3.7820     6.4770    17.9710 C.ar  1 Q101  -0.1060 
 14 C22      4.8360     8.4260    17.1070 C.ar  1 Q101   0.1210 
 15 C24      3.5070     6.0470    16.6890 C.ar  1 Q101  -0.0920 
 16 C26      4.5800     8.0260    15.8050 C.ar  1 Q101  -0.1400 
 17 C27      3.9010     6.8230    15.6080 C.ar  1 Q101  -0.1150 
 18 C28      3.5820     6.2720    14.2580 C.2   1 Q101   0.6760 
 19 C50      5.9050     7.8240    20.1740 C.2   1 Q101   0.6950 
 20 F1       5.4870     9.5800    17.3260 F     1 Q101  -0.1400 
 21 O1       9.4360     9.1330    22.4980 O.2   1 Q101  -0.5930 
 22 CL1     13.5960     7.5790    25.2810 Cl    1 Q101  -0.0550 
 23 C1      11.9050     7.7510    25.6110 C.2   1 Q101   0.0330 
 24 C2      11.1540     6.9730    26.4270 C.2   1 Q101  -0.1460 
 25 S2      11.0280     9.0260    24.8620 S.3   1 Q101   0.0240 
 26 C3       9.8240     7.4040    26.4520 C.2   1 Q101  -0.1130 
 27 C4       9.5750     8.5120    25.6500 C.2   1 Q101  -0.0920 
 28 C5       8.2580     9.1450    25.5080 C.2   1 Q101   0.0810 
 29 C6       7.6990     9.5560    24.3710 C.2   1 Q101  -0.4200 
 30 O2       7.7970     7.3230    23.0280 O.2   1 Q101  -0.5930 
 31 H142     3.3740     9.7070    19.6910 H     1 Q101   0.0600 
 32 H141     3.0420     8.2820    20.7240 H     1 Q101   0.0600 
 33 H132     4.1680     9.6020    22.3680 H     1 Q101   0.0720 
 34 H131     5.0440    10.5060    21.1300 H     1 Q101   0.0720 
 35 H83      0.9920     7.9160    14.2180 H     1 Q101   0.0490 
 36 H82      0.2970     6.2800    13.9930 H     1 Q101   0.0490 
 37 H81      1.2370     6.6460    15.4530 H     1 Q101   0.0490 
 38 H73      2.5130     5.0580    12.1290 H     1 Q101   0.0490 
 39 H72      1.3000     6.3560    11.8820 H     1 Q101   0.0490 
 40 H71      3.0460     6.7020    11.7290 H     1 Q101   0.0490 
 41 H6       6.9870    10.3660    24.2950 H     1 Q101   0.1940 
 42 H5       7.7060     9.2170    26.4450 H     1 Q101   0.1560 
 43 H3       9.0550     6.9300    27.0540 H     1 Q101   0.1600 
 44 H26      4.8940     8.6420    14.9740 H     1 Q101   0.1600 
 45 H24      3.0210     5.0930    16.5370 H     1 Q101   0.1630 
 46 H21      3.4790     5.8500    18.8060 H     1 Q101   0.1530 
 47 H2      11.5260     6.1320    26.9960 H     1 Q101   0.1720 
 48 H12      5.6810     7.7920    22.2800 H     1 Q101   0.0910 
 49 H1       7.6090     9.6220    20.9060 H     1 Q101   0.4670 
@<TRIPOS>BOND
  1   1   2  am  
  2   1   9  1   
  3   1  49  1   
  4   2  21  2   
  5   2  29  1   
  6   2  30  2   
  7   3  11  1   
  8   3  12  1   
  9   3  19  am  
 10   4   7  1   
 11   4   8  1   
 12   4  18  am  
 13   5  19  2   
 14   6  18  2   
 15   7  38  1   
 16   7  39  1   
 17   7  40  1   
 18   8  35  1   
 19   8  36  1   
 20   8  37  1   
 21   9  10  1   
 22   9  19  1   
 23   9  48  1   
 24  10  11  1   
 25  10  33  1   
 26  10  34  1   
 27  11  31  1   
 28  11  32  1   
 29  12  13  ar  
 30  12  14  ar  
 31  13  15  ar  
 32  13  46  1   
 33  14  16  ar  
 34  14  20  1   
 35  15  17  ar  
 36  15  45  1   
 37  16  17  ar  
 38  16  44  1   
 39  17  18  1   
 40  22  23  1   
 41  23  24  2   
 42  23  25  1   
 43  24  26  1   
 44  24  47  1   
 45  25  27  1   
 46  26  27  2   
 47  26  43  1   
 48  27  28  1   
 49  28  29  2   
 50  28  42  1   
 51  29  41  1   
@<TRIPOS>SUBSTRUCTURE
  1 Q101  19 GROUP 4 **** **** 0

# MOE 2011.10 (io_trps.svl 2011.10)

@<TRIPOS>MOLECULE
FXA101_16
49 51 1 0 0 
SMALL
USER_CHARGES


@<TRIPOS>ATOM
  1 N1       3.9390    10.3150    15.2320 N.am  1 Q101  -0.8960 
  2 S1       3.1790     9.5400    14.0360 S.o2  1 Q101   1.3220 
  3 N2       6.2900     9.9500    17.7230 N.am  1 Q101  -0.3970 
  4 N3       6.5590     8.5540    24.0890 N.am  1 Q101  -0.4840 
  5 O3       4.4120     8.6260    17.5450 O.2   1 Q101  -0.6040 
  6 O4       8.1370    10.0910    23.7970 O.2   1 Q101  -0.6060 
  7 C7       5.3420     8.0060    23.4690 C.3   1 Q101   0.0840 
  8 C8       6.8700     8.1460    25.4690 C.3   1 Q101   0.0840 
  9 C12      5.2600     9.8890    15.6310 C.3   1 Q101   0.1690 
 10 C13      6.2940    11.0190    15.6360 C.3   1 Q101  -0.1080 
 11 C14      7.1470    10.7640    16.8740 C.3   1 Q101   0.1020 
 12 C15      6.5340     9.7800    19.1220 C.ar  1 Q101   0.0330 
 13 C21      5.9470    10.6140    20.0630 C.ar  1 Q101  -0.1060 
 14 C22      7.3900     8.7880    19.5780 C.ar  1 Q101   0.1210 
 15 C24      6.1940    10.4620    21.4120 C.ar  1 Q101  -0.0920 
 16 C26      7.6640     8.6060    20.9240 C.ar  1 Q101  -0.1400 
 17 C27      7.0470     9.4560    21.8420 C.ar  1 Q101  -0.1150 
 18 C28      7.2730     9.3760    23.3150 C.2   1 Q101   0.6760 
 19 C50      5.2380     9.3930    17.0720 C.2   1 Q101   0.6950 
 20 F1       7.9700     7.9830    18.6720 F     1 Q101  -0.1400 
 21 O1       4.0790     9.6330    12.9280 O.2   1 Q101  -0.5930 
 22 CL1      5.0440     4.8300     9.4440 Cl    1 Q101  -0.0550 
 23 C1       3.8900     5.2660    10.6600 C.2   1 Q101   0.0330 
 24 C2       2.6580     4.7320    10.8390 C.2   1 Q101  -0.1460 
 25 S2       4.2870     6.4970    11.7920 S.3   1 Q101   0.0240 
 26 C3       2.0000     5.3300    11.9170 C.2   1 Q101  -0.1130 
 27 C4       2.7410     6.3200    12.5520 C.2   1 Q101  -0.0920 
 28 C5       2.2650     7.0930    13.7050 C.2   1 Q101   0.0810 
 29 C6       3.0040     7.8720    14.4940 C.2   1 Q101  -0.4200 
 30 O2       1.8950    10.1820    14.0120 O.2   1 Q101  -0.5930 
 31 H142     7.4300    11.6920    17.3820 H     1 Q101   0.0600 
 32 H141     8.0440    10.1880    16.6260 H     1 Q101   0.0600 
 33 H132     6.8880    11.0450    14.7170 H     1 Q101   0.0720 
 34 H131     5.7930    11.9900    15.7300 H     1 Q101   0.0720 
 35 H83      6.2960     8.7620    26.1580 H     1 Q101   0.0490 
 36 H82      6.6130     7.0910    25.5960 H     1 Q101   0.0490 
 37 H81      7.9360     8.2730    25.6400 H     1 Q101   0.0490 
 38 H73      5.6360     7.3800    22.6230 H     1 Q101   0.0490 
 39 H72      4.7710     7.4200    24.1930 H     1 Q101   0.0490 
 40 H71      4.7210     8.8260    23.0910 H     1 Q101   0.0490 
 41 H6       3.4900     7.5420    15.4010 H     1 Q101   0.1940 
 42 H5       1.1880     7.0290    13.8570 H     1 Q101   0.1560 
 43 H3       1.0060     5.0410    12.2450 H     1 Q101   0.1600 
 44 H26      8.3310     7.8160    21.2420 H     1 Q101   0.1600 
 45 H24      5.7500    11.1500    22.1180 H     1 Q101   0.1630 
 46 H21      5.2870    11.4170    19.7420 H     1 Q101   0.1530 
 47 H2       2.2330     3.9400    10.2380 H     1 Q101   0.1720 
 48 H12      5.6410     9.0640    15.0180 H     1 Q101   0.0910 
 49 H1       3.3480    10.7250    15.9590 H     1 Q101   0.4670 
@<TRIPOS>BOND
  1   1   2  am  
  2   1   9  1   
  3   1  49  1   
  4   2  21  2   
  5   2  29  1   
  6   2  30  2   
  7   3  11  1   
  8   3  12  1   
  9   3  19  am  
 10   4   7  1   
 11   4   8  1   
 12   4  18  am  
 13   5  19  2   
 14   6  18  2   
 15   7  38  1   
 16   7  39  1   
 17   7  40  1   
 18   8  35  1   
 19   8  36  1   
 20   8  37  1   
 21   9  10  1   
 22   9  19  1   
 23   9  48  1   
 24  10  11  1   
 25  10  33  1   
 26  10  34  1   
 27  11  31  1   
 28  11  32  1   
 29  12  13  ar  
 30  12  14  ar  
 31  13  15  ar  
 32  13  46  1   
 33  14  16  ar  
 34  14  20  1   
 35  15  17  ar  
 36  15  45  1   
 37  16  17  ar  
 38  16  44  1   
 39  17  18  1   
 40  22  23  1   
 41  23  24  2   
 42  23  25  1   
 43  24  26  1   
 44  24  47  1   
 45  25  27  1   
 46  26  27  2   
 47  26  43  1   
 48  27  28  1   
 49  28  29  2   
 50  28  42  1   
 51  29  41  1   
@<TRIPOS>SUBSTRUCTURE
  1 Q101  19 GROUP 4 **** **** 0

# MOE 2011.10 (io_trps.svl 2011.10)

@<TRIPOS>MOLECULE
FXA101_17
49 51 1 0 0 
SMALL
USER_CHARGES


@<TRIPOS>ATOM
  1 N1       5.8610     6.6930    22.3140 N.am  1 Q101  -0.8960 
  2 S1       6.9530     7.7150    22.9220 S.o2  1 Q101   1.3220 
  3 N2       5.6810     5.1500    19.2390 N.am  1 Q101  -0.3970 
  4 N3       3.2890     6.1110    13.3170 N.am  1 Q101  -0.4840 
  5 O3       6.7530     7.1600    19.5900 O.2   1 Q101  -0.6040 
  6 O4       5.3950     5.5780    12.8470 O.2   1 Q101  -0.6060 
  7 C7       2.2030     5.2880    13.8710 C.3   1 Q101   0.0840 
  8 C8       2.9210     7.2330    12.4370 C.3   1 Q101   0.0840 
  9 C12      6.2920     5.6280    21.4380 C.3   1 Q101   0.1690 
 10 C13      5.3560     4.4150    21.4420 C.3   1 Q101  -0.1080 
 11 C14      5.2960     3.9620    19.9870 C.3   1 Q101   0.1020 
 12 C15      5.4160     5.2960    17.8400 C.ar  1 Q101   0.0330 
 13 C21      4.5950     6.3090    17.3650 C.ar  1 Q101  -0.1060 
 14 C22      5.9530     4.4080    16.9200 C.ar  1 Q101   0.1210 
 15 C24      4.3260     6.4410    16.0180 C.ar  1 Q101  -0.0920 
 16 C26      5.7040     4.5080    15.5610 C.ar  1 Q101  -0.1400 
 17 C27      4.8830     5.5460    15.1170 C.ar  1 Q101  -0.1150 
 18 C28      4.5230     5.7510    13.6830 C.2   1 Q101   0.6760 
 19 C50      6.2870     6.1030    19.9900 C.2   1 Q101   0.6950 
 20 F1       6.7410     3.4200    17.3760 F     1 Q101  -0.1400 
 21 O1       6.5490     8.9970    22.4310 O.2   1 Q101  -0.5930 
 22 CL1     13.0890     7.3970    26.2800 Cl    1 Q101  -0.0550 
 23 C1      11.5510     7.8630    25.6360 C.2   1 Q101   0.0330 
 24 C2      11.3160     8.4550    24.4410 C.2   1 Q101  -0.1460 
 25 S2      10.1300     7.5670    26.5580 S.3   1 Q101   0.0240 
 26 C3       9.9510     8.6900    24.2530 C.2   1 Q101  -0.1130 
 27 C4       9.1550     8.2710    25.3120 C.2   1 Q101  -0.0920 
 28 C5       7.6950     8.4120    25.3500 C.2   1 Q101   0.0810 
 29 C6       6.8140     7.6940    24.6540 C.2   1 Q101  -0.4200 
 30 O2       8.1970     7.1210    22.5190 O.2   1 Q101  -0.5930 
 31 H142     4.2960     3.6260    19.6960 H     1 Q101   0.0600 
 32 H141     6.0260     3.1710    19.7880 H     1 Q101   0.0600 
 33 H132     5.7010     3.6230    22.1120 H     1 Q101   0.0720 
 34 H131     4.3530     4.7120    21.7740 H     1 Q101   0.0720 
 35 H83      2.7560     6.8540    11.4310 H     1 Q101   0.0490 
 36 H82      2.0120     7.7040    12.8220 H     1 Q101   0.0490 
 37 H81      3.7270     7.9630    12.4430 H     1 Q101   0.0490 
 38 H73      2.1980     5.4060    14.9580 H     1 Q101   0.0490 
 39 H72      1.2400     5.5890    13.4540 H     1 Q101   0.0490 
 40 H71      2.3870     4.2330    13.6410 H     1 Q101   0.0490 
 41 H6       6.0300     7.0930    25.0920 H     1 Q101   0.1940 
 42 H5       7.3470     9.1540    26.0680 H     1 Q101   0.1560 
 43 H3       9.5420     9.1420    23.3550 H     1 Q101   0.1600 
 44 H26      6.1470     3.8020    14.8720 H     1 Q101   0.1600 
 45 H24      3.6530     7.2190    15.6800 H     1 Q101   0.1630 
 46 H21      4.1380     7.0110    18.0580 H     1 Q101   0.1530 
 47 H2      12.0770     8.7100    23.7160 H     1 Q101   0.1720 
 48 H12      7.3110     5.2880    21.6560 H     1 Q101   0.0910 
 49 H1       4.9220     7.0690    22.1540 H     1 Q101   0.4670 
@<TRIPOS>BOND
  1   1   2  am  
  2   1   9  1   
  3   1  49  1   
  4   2  21  2   
  5   2  29  1   
  6   2  30  2   
  7   3  11  1   
  8   3  12  1   
  9   3  19  am  
 10   4   7  1   
 11   4   8  1   
 12   4  18  am  
 13   5  19  2   
 14   6  18  2   
 15   7  38  1   
 16   7  39  1   
 17   7  40  1   
 18   8  35  1   
 19   8  36  1   
 20   8  37  1   
 21   9  10  1   
 22   9  19  1   
 23   9  48  1   
 24  10  11  1   
 25  10  33  1   
 26  10  34  1   
 27  11  31  1   
 28  11  32  1   
 29  12  13  ar  
 30  12  14  ar  
 31  13  15  ar  
 32  13  46  1   
 33  14  16  ar  
 34  14  20  1   
 35  15  17  ar  
 36  15  45  1   
 37  16  17  ar  
 38  16  44  1   
 39  17  18  1   
 40  22  23  1   
 41  23  24  2   
 42  23  25  1   
 43  24  26  1   
 44  24  47  1   
 45  25  27  1   
 46  26  27  2   
 47  26  43  1   
 48  27  28  1   
 49  28  29  2   
 50  28  42  1   
 51  29  41  1   
@<TRIPOS>SUBSTRUCTURE
  1 Q101  19 GROUP 4 **** **** 0

# MOE 2011.10 (io_trps.svl 2011.10)

@<TRIPOS>MOLECULE
FXA101_18
49 51 1 0 0 
SMALL
USER_CHARGES


@<TRIPOS>ATOM
  1 N1       6.5450     9.8440    20.0360 N.am  1 Q101  -0.8960 
  2 S1       7.5950     9.8960    21.2630 S.o2  1 Q101   1.3220 
  3 N2       4.2020     7.8770    18.4520 N.am  1 Q101  -0.3970 
  4 N3       3.8430     3.9880    13.2260 N.am  1 Q101  -0.4840 
  5 O3       6.4010     7.2500    18.7410 O.2   1 Q101  -0.6040 
  6 O4       1.7580     4.6930    13.5330 O.2   1 Q101  -0.6060 
  7 C7       3.7380     2.5240    13.3330 C.3   1 Q101   0.0840 
  8 C8       4.9250     4.5410    12.3950 C.3   1 Q101   0.0840 
  9 C12      5.3850     8.9880    20.1280 C.3   1 Q101   0.1690 
 10 C13      4.0610     9.7220    19.8920 C.3   1 Q101  -0.1080 
 11 C14      3.2190     8.7560    19.0680 C.3   1 Q101   0.1020 
 12 C15      3.8970     7.0560    17.3210 C.ar  1 Q101   0.0330 
 13 C21      3.8190     7.5900    16.0430 C.ar  1 Q101  -0.1060 
 14 C22      3.6430     5.7010    17.4760 C.ar  1 Q101   0.1210 
 15 C24      3.5080     6.8030    14.9530 C.ar  1 Q101  -0.0920 
 16 C26      3.3270     4.8790    16.4060 C.ar  1 Q101  -0.1400 
 17 C27      3.2680     5.4480    15.1340 C.ar  1 Q101  -0.1150 
 18 C28      2.9200     4.6760    13.9040 C.2   1 Q101   0.6760 
 19 C50      5.4280     7.9280    19.0330 C.2   1 Q101   0.6950 
 20 F1       3.7080     5.1800    18.7120 F     1 Q101  -0.1400 
 21 O1       8.4720    10.9760    20.9310 O.2   1 Q101  -0.5930 
 22 CL1     10.8310     7.5080    27.0910 Cl    1 Q101  -0.0550 
 23 C1       9.8640     8.4030    25.9670 C.2   1 Q101   0.0330 
 24 C2      10.2190     9.5340    25.3100 C.2   1 Q101  -0.1460 
 25 S2       8.2780     7.8520    25.5970 S.3   1 Q101   0.0240 
 26 C3       9.1850     9.9840    24.4840 C.2   1 Q101  -0.1130 
 27 C4       8.0470     9.1870    24.5200 C.2   1 Q101  -0.0920 
 28 C5       6.8310     9.4550    23.7440 C.2   1 Q101   0.0810 
 29 C6       6.7200    10.2910    22.7120 C.2   1 Q101  -0.4200 
 30 O2       8.0700     8.5420    21.3260 O.2   1 Q101  -0.5930 
 31 H142     2.6240     9.2690    18.3060 H     1 Q101   0.0600 
 32 H141     2.5640     8.1550    19.7080 H     1 Q101   0.0600 
 33 H132     3.5720    10.0100    20.8280 H     1 Q101   0.0720 
 34 H131     4.2350    10.6400    19.3170 H     1 Q101   0.0720 
 35 H83      5.8430     4.5630    12.9780 H     1 Q101   0.0490 
 36 H82      5.0510     3.9130    11.5090 H     1 Q101   0.0490 
 37 H81      4.6480     5.5440    12.0800 H     1 Q101   0.0490 
 38 H73      2.7930     2.2100    12.8810 H     1 Q101   0.0490 
 39 H72      4.5780     2.0400    12.8280 H     1 Q101   0.0490 
 40 H71      3.7290     2.2320    14.3890 H     1 Q101   0.0490 
 41 H6       6.1160    11.1870    22.7100 H     1 Q101   0.1940 
 42 H5       5.9770     8.8500    24.0480 H     1 Q101   0.1560 
 43 H3       9.2650    10.8650    23.8560 H     1 Q101   0.1600 
 44 H26      3.1430     3.8250    16.5650 H     1 Q101   0.1600 
 45 H24      3.4190     7.2540    13.9740 H     1 Q101   0.1630 
 46 H21      3.9900     8.6520    15.8850 H     1 Q101   0.1530 
 47 H2      11.1770    10.0270    25.4000 H     1 Q101   0.1720 
 48 H12      5.3280     8.4530    21.0830 H     1 Q101   0.0910 
 49 H1       6.9280    10.0030    19.1010 H     1 Q101   0.4670 
@<TRIPOS>BOND
  1   1   2  am  
  2   1   9  1   
  3   1  49  1   
  4   2  21  2   
  5   2  29  1   
  6   2  30  2   
  7   3  11  1   
  8   3  12  1   
  9   3  19  am  
 10   4   7  1   
 11   4   8  1   
 12   4  18  am  
 13   5  19  2   
 14   6  18  2   
 15   7  38  1   
 16   7  39  1   
 17   7  40  1   
 18   8  35  1   
 19   8  36  1   
 20   8  37  1   
 21   9  10  1   
 22   9  19  1   
 23   9  48  1   
 24  10  11  1   
 25  10  33  1   
 26  10  34  1   
 27  11  31  1   
 28  11  32  1   
 29  12  13  ar  
 30  12  14  ar  
 31  13  15  ar  
 32  13  46  1   
 33  14  16  ar  
 34  14  20  1   
 35  15  17  ar  
 36  15  45  1   
 37  16  17  ar  
 38  16  44  1   
 39  17  18  1   
 40  22  23  1   
 41  23  24  2   
 42  23  25  1   
 43  24  26  1   
 44  24  47  1   
 45  25  27  1   
 46  26  27  2   
 47  26  43  1   
 48  27  28  1   
 49  28  29  2   
 50  28  42  1   
 51  29  41  1   
@<TRIPOS>SUBSTRUCTURE
  1 Q101  19 GROUP 4 **** **** 0

# MOE 2011.10 (io_trps.svl 2011.10)

@<TRIPOS>MOLECULE
FXA101_19
49 51 1 0 0 
SMALL
USER_CHARGES


@<TRIPOS>ATOM
  1 N1       5.9780     8.3400    22.8370 N.am  1 Q101  -0.8960 
  2 S1       6.4060     9.0600    24.2180 S.o2  1 Q101   1.3220 
  3 N2       6.4380     9.0930    19.5070 N.am  1 Q101  -0.3970 
  4 N3       4.2590    13.4780    15.2060 N.am  1 Q101  -0.4840 
  5 O3       6.1880    10.6920    21.1480 O.2   1 Q101  -0.6040 
  6 O4       5.0610    11.8350    13.9420 O.2   1 Q101  -0.6060 
  7 C7       3.7960    14.1160    13.9630 C.3   1 Q101   0.0840 
  8 C8       4.0580    14.2070    16.4690 C.3   1 Q101   0.0840 
  9 C12      6.8610     8.4070    21.6960 C.3   1 Q101   0.1690 
 10 C13      6.7960     7.1680    20.7970 C.3   1 Q101  -0.1080 
 11 C14      6.8750     7.7110    19.3750 C.3   1 Q101   0.1020 
 12 C15      6.0120     9.8740    18.3870 C.ar  1 Q101   0.0330 
 13 C21      6.9220    10.3620    17.4610 C.ar  1 Q101  -0.1060 
 14 C22      4.6720    10.1890    18.2110 C.ar  1 Q101   0.1210 
 15 C24      6.5140    11.1300    16.3890 C.ar  1 Q101  -0.0920 
 16 C26      4.2260    10.9570    17.1480 C.ar  1 Q101  -0.1400 
 17 C27      5.1680    11.4220    16.2300 C.ar  1 Q101  -0.1150 
 18 C28      4.8180    12.2740    15.0550 C.2   1 Q101   0.6760 
 19 C50      6.4520     9.5560    20.7820 C.2   1 Q101   0.6950 
 20 F1       3.7870     9.7280    19.1090 F     1 Q101  -0.1400 
 21 O1       5.2370     8.9730    25.0380 O.2   1 Q101  -0.5930 
 22 CL1     14.0190     7.3610    26.7030 Cl    1 Q101  -0.0550 
 23 C1      12.3150     7.5100    26.4300 C.2   1 Q101   0.0330 
 24 C2      11.3240     6.9320    27.1500 C.2   1 Q101  -0.1460 
 25 S2      11.7540     8.4820    25.1270 S.3   1 Q101   0.0240 
 26 C3      10.0670     7.2700    26.6410 C.2   1 Q101  -0.1130 
 27 C4      10.1130     8.1070    25.5330 C.2   1 Q101  -0.0920 
 28 C5       8.9270     8.5970    24.8210 C.2   1 Q101   0.0810 
 29 C6       7.6840     8.1310    24.9430 C.2   1 Q101  -0.4200 
 30 O2       6.9090    10.3270    23.7690 O.2   1 Q101  -0.5930 
 31 H142     6.2280     7.1620    18.6840 H     1 Q101   0.0600 
 32 H141     7.9060     7.7030    19.0050 H     1 Q101   0.0600 
 33 H132     7.5930     6.4510    21.0160 H     1 Q101   0.0720 
 34 H131     5.8400     6.6480    20.9380 H     1 Q101   0.0720 
 35 H83      4.8630    14.9280    16.5920 H     1 Q101   0.0490 
 36 H82      3.0910    14.7170    16.4370 H     1 Q101   0.0490 
 37 H81      4.0550    13.4940    17.2890 H     1 Q101   0.0490 
 38 H73      2.9940    13.5070    13.5380 H     1 Q101   0.0490 
 39 H72      3.4360    15.1290    14.1610 H     1 Q101   0.0490 
 40 H71      4.6180    14.1550    13.2410 H     1 Q101   0.0490 
 41 H6       7.4200     7.2130    25.4470 H     1 Q101   0.1940 
 42 H5       9.1260     9.4570    24.1820 H     1 Q101   0.1560 
 43 H3       9.1340     6.9280    27.0790 H     1 Q101   0.1600 
 44 H26      3.1720    11.1760    17.0380 H     1 Q101   0.1600 
 45 H24      7.2520    11.5260    15.7040 H     1 Q101   0.1630 
 46 H21      7.9830    10.1550    17.5780 H     1 Q101   0.1530 
 47 H2      11.4740     6.2970    28.0120 H     1 Q101   0.1720 
 48 H12      7.9050     8.5840    21.9790 H     1 Q101   0.0910 
 49 H1       4.9750     8.2880    22.6410 H     1 Q101   0.4670 
@<TRIPOS>BOND
  1   1   2  am  
  2   1   9  1   
  3   1  49  1   
  4   2  21  2   
  5   2  29  1   
  6   2  30  2   
  7   3  11  1   
  8   3  12  1   
  9   3  19  am  
 10   4   7  1   
 11   4   8  1   
 12   4  18  am  
 13   5  19  2   
 14   6  18  2   
 15   7  38  1   
 16   7  39  1   
 17   7  40  1   
 18   8  35  1   
 19   8  36  1   
 20   8  37  1   
 21   9  10  1   
 22   9  19  1   
 23   9  48  1   
 24  10  11  1   
 25  10  33  1   
 26  10  34  1   
 27  11  31  1   
 28  11  32  1   
 29  12  13  ar  
 30  12  14  ar  
 31  13  15  ar  
 32  13  46  1   
 33  14  16  ar  
 34  14  20  1   
 35  15  17  ar  
 36  15  45  1   
 37  16  17  ar  
 38  16  44  1   
 39  17  18  1   
 40  22  23  1   
 41  23  24  2   
 42  23  25  1   
 43  24  26  1   
 44  24  47  1   
 45  25  27  1   
 46  26  27  2   
 47  26  43  1   
 48  27  28  1   
 49  28  29  2   
 50  28  42  1   
 51  29  41  1   
@<TRIPOS>SUBSTRUCTURE
  1 Q101  19 GROUP 4 **** **** 0

# MOE 2011.10 (io_trps.svl 2011.10)

@<TRIPOS>MOLECULE
FXA101_20
49 51 1 0 0 
SMALL
USER_CHARGES


@<TRIPOS>ATOM
  1 N1       6.7000     3.1330    17.6290 N.am  1 Q101  -0.8960 
  2 S1       6.2500     2.2270    16.3700 S.o2  1 Q101   1.3220 
  3 N2       6.8460     6.2300    19.1300 N.am  1 Q101  -0.3970 
  4 N3       9.6280     8.8640    24.3850 N.am  1 Q101  -0.4840 
  5 O3       8.6410     4.7900    19.0130 O.2   1 Q101  -0.6040 
  6 O4       8.0410    10.3280    23.8580 O.2   1 Q101  -0.6060 
  7 C7       9.2670     8.2580    25.6760 C.3   1 Q101   0.0840 
  8 C8      11.0580     8.9620    24.0460 C.3   1 Q101   0.0840 
  9 C12      6.7380     4.5710    17.4950 C.3   1 Q101   0.1690 
 10 C13      5.3620     5.2340    17.6120 C.3   1 Q101  -0.1080 
 11 C14      5.6070     6.5060    18.4160 C.3   1 Q101   0.1020 
 12 C15      7.2600     6.9900    20.2700 C.ar  1 Q101   0.0330 
 13 C21      8.0700     8.1080    20.1340 C.ar  1 Q101  -0.1060 
 14 C22      6.8850     6.6090    21.5500 C.ar  1 Q101   0.1210 
 15 C24      8.4840     8.8320    21.2330 C.ar  1 Q101  -0.0920 
 16 C26      7.2830     7.3100    22.6770 C.ar  1 Q101  -0.1400 
 17 C27      8.0870     8.4370    22.5020 C.ar  1 Q101  -0.1150 
 18 C28      8.5980     9.2650    23.6350 C.2   1 Q101   0.6760 
 19 C50      7.5490     5.1830    18.6300 C.2   1 Q101   0.6950 
 20 F1       6.1100     5.5210    21.6880 F     1 Q101  -0.1400 
 21 O1       5.7490     3.1700    15.4180 O.2   1 Q101  -0.5930 
 22 CL1      4.0530    -1.2910    10.9260 Cl    1 Q101  -0.0550 
 23 C1       5.0860    -0.4150    12.0050 C.2   1 Q101   0.0330 
 24 C2       5.4090     0.8980    11.9330 C.2   1 Q101  -0.1460 
 25 S2       5.8060    -1.2380    13.3320 S.3   1 Q101   0.0240 
 26 C3       6.2700     1.2640    12.9710 C.2   1 Q101  -0.1130 
 27 C4       6.5960     0.2210    13.8290 C.2   1 Q101  -0.0920 
 28 C5       7.4840     0.3560    14.9890 C.2   1 Q101   0.0810 
 29 C6       7.6650     1.4540    15.7220 C.2   1 Q101  -0.4200 
 30 O2       5.3890     1.2510    16.9780 O.2   1 Q101  -0.5930 
 31 H142     4.7930     6.7190    19.1160 H     1 Q101   0.0600 
 32 H141     5.7660     7.3660    17.7580 H     1 Q101   0.0600 
 33 H132     4.9120     5.4370    16.6360 H     1 Q101   0.0720 
 34 H131     4.6720     4.5810    18.1620 H     1 Q101   0.0720 
 35 H83     11.4750     9.8440    24.5260 H     1 Q101   0.0490 
 36 H82     11.5690     8.0600    24.3950 H     1 Q101   0.0490 
 37 H81     11.1590     9.0290    22.9660 H     1 Q101   0.0490 
 38 H73      8.7110     7.3370    25.4840 H     1 Q101   0.0490 
 39 H72     10.1630     8.0430    26.2640 H     1 Q101   0.0490 
 40 H71      8.6190     8.9420    26.2350 H     1 Q101   0.0490 
 41 H6       8.6280     1.8880    15.9500 H     1 Q101   0.1940 
 42 H5       7.9820    -0.5730    15.2680 H     1 Q101   0.1560 
 43 H3       6.6410     2.2750    13.1100 H     1 Q101   0.1600 
 44 H26      6.9640     6.9880    23.6600 H     1 Q101   0.1600 
 45 H24      9.1440     9.6790    21.0990 H     1 Q101   0.1630 
 46 H21      8.4020     8.4240    19.1480 H     1 Q101   0.1530 
 47 H2       5.0470     1.5840    11.1800 H     1 Q101   0.1720 
 48 H12      7.2080     4.8960    16.5590 H     1 Q101   0.0910 
 49 H1       7.3700     2.7130    18.2780 H     1 Q101   0.4670 
@<TRIPOS>BOND
  1   1   2  am  
  2   1   9  1   
  3   1  49  1   
  4   2  21  2   
  5   2  29  1   
  6   2  30  2   
  7   3  11  1   
  8   3  12  1   
  9   3  19  am  
 10   4   7  1   
 11   4   8  1   
 12   4  18  am  
 13   5  19  2   
 14   6  18  2   
 15   7  38  1   
 16   7  39  1   
 17   7  40  1   
 18   8  35  1   
 19   8  36  1   
 20   8  37  1   
 21   9  10  1   
 22   9  19  1   
 23   9  48  1   
 24  10  11  1   
 25  10  33  1   
 26  10  34  1   
 27  11  31  1   
 28  11  32  1   
 29  12  13  ar  
 30  12  14  ar  
 31  13  15  ar  
 32  13  46  1   
 33  14  16  ar  
 34  14  20  1   
 35  15  17  ar  
 36  15  45  1   
 37  16  17  ar  
 38  16  44  1   
 39  17  18  1   
 40  22  23  1   
 41  23  24  2   
 42  23  25  1   
 43  24  26  1   
 44  24  47  1   
 45  25  27  1   
 46  26  27  2   
 47  26  43  1   
 48  27  28  1   
 49  28  29  2   
 50  28  42  1   
 51  29  41  1   
@<TRIPOS>SUBSTRUCTURE
  1 Q101  19 GROUP 4 **** **** 0

# MOE 2011.10 (io_trps.svl 2011.10)

@<TRIPOS>MOLECULE
FXA101_21
49 51 1 0 0 
SMALL
USER_CHARGES


@<TRIPOS>ATOM
  1 N1       6.5870    10.0720    20.8310 N.am  1 Q101  -0.8960 
  2 S1       7.6380    11.2950    20.9300 S.o2  1 Q101   1.3220 
  3 N2       6.7820     6.6350    20.7220 N.am  1 Q101  -0.3970 
  4 N3       8.8960     1.6370    17.1680 N.am  1 Q101  -0.4840 
  5 O3       8.3040     8.0260    19.6940 O.2   1 Q101  -0.6040 
  6 O4       6.7060     1.2700    17.2580 O.2   1 Q101  -0.6060 
  7 C7       9.9500     1.9150    18.1560 C.3   1 Q101   0.0840 
  8 C8       9.2950     1.0170    15.8930 C.3   1 Q101   0.0840 
  9 C12      6.8760     8.8290    21.5080 C.3   1 Q101   0.1690 
 10 C13      5.6350     8.1490    22.0970 C.3   1 Q101  -0.1080 
 11 C14      5.8400     6.6620    21.8320 C.3   1 Q101   0.1020 
 12 C15      6.9790     5.4720    19.9110 C.ar  1 Q101   0.0330 
 13 C21      7.3890     4.2680    20.4660 C.ar  1 Q101  -0.1060 
 14 C22      6.7930     5.5260    18.5380 C.ar  1 Q101   0.1210 
 15 C24      7.5960     3.1510    19.6830 C.ar  1 Q101  -0.0920 
 16 C26      6.9920     4.4260    17.7190 C.ar  1 Q101  -0.1400 
 17 C27      7.3930     3.2280    18.3130 C.ar  1 Q101  -0.1150 
 18 C28      7.6600     1.9780    17.5410 C.2   1 Q101   0.6760 
 19 C50      7.4290     7.8090    20.5190 C.2   1 Q101   0.6950 
 20 F1       6.4060     6.6920    17.9930 F     1 Q101  -0.1400 
 21 O1       8.6540    10.9640    19.9780 O.2   1 Q101  -0.5930 
 22 CL1      2.3880    15.7440    16.5290 Cl    1 Q101  -0.0550 
 23 C1       3.5030    15.0790    17.6750 C.2   1 Q101   0.0330 
 24 C2       3.7850    15.5630    18.9090 C.2   1 Q101  -0.1460 
 25 S2       4.3760    13.6540    17.2700 S.3   1 Q101   0.0240 
 26 C3       4.7380    14.7720    19.5560 C.2   1 Q101  -0.1130 
 27 C4       5.1760    13.6870    18.8050 C.2   1 Q101  -0.0920 
 28 C5       6.1740    12.7160    19.2660 C.2   1 Q101   0.0810 
 29 C6       6.8310    12.7490    20.4250 C.2   1 Q101  -0.4200 
 30 O2       7.9230    11.3500    22.3360 O.2   1 Q101  -0.5930 
 31 H142     4.9080     6.1550    21.5650 H     1 Q101   0.0600 
 32 H141     6.2990     6.1660    22.6930 H     1 Q101   0.0600 
 33 H132     5.5040     8.3700    23.1600 H     1 Q101   0.0720 
 34 H131     4.7330     8.4930    21.5760 H     1 Q101   0.0720 
 35 H83      9.6580     1.7910    15.2220 H     1 Q101   0.0490 
 36 H82     10.0790     0.2800    16.0860 H     1 Q101   0.0490 
 37 H81      8.4340     0.5120    15.4640 H     1 Q101   0.0490 
 38 H73      9.7660     1.3010    19.0420 H     1 Q101   0.0490 
 39 H72     10.9360     1.6930    17.7410 H     1 Q101   0.0490 
 40 H71      9.9070     2.9680    18.4530 H     1 Q101   0.0490 
 41 H6       6.9070    13.6180    21.0630 H     1 Q101   0.1940 
 42 H5       6.3190    11.8810    18.5820 H     1 Q101   0.1560 
 43 H3       5.0960    14.9720    20.5610 H     1 Q101   0.1600 
 44 H26      6.8290     4.5030    16.6530 H     1 Q101   0.1600 
 45 H24      7.9490     2.2360    20.1390 H     1 Q101   0.1630 
 46 H21      7.5660     4.1940    21.5360 H     1 Q101   0.1530 
 47 H2       3.3310    16.4410    19.3480 H     1 Q101   0.1720 
 48 H12      7.6260     8.9420    22.2990 H     1 Q101   0.0910 
 49 H1       6.0360    10.0120    19.9720 H     1 Q101   0.4670 
@<TRIPOS>BOND
  1   1   2  am  
  2   1   9  1   
  3   1  49  1   
  4   2  21  2   
  5   2  29  1   
  6   2  30  2   
  7   3  11  1   
  8   3  12  1   
  9   3  19  am  
 10   4   7  1   
 11   4   8  1   
 12   4  18  am  
 13   5  19  2   
 14   6  18  2   
 15   7  38  1   
 16   7  39  1   
 17   7  40  1   
 18   8  35  1   
 19   8  36  1   
 20   8  37  1   
 21   9  10  1   
 22   9  19  1   
 23   9  48  1   
 24  10  11  1   
 25  10  33  1   
 26  10  34  1   
 27  11  31  1   
 28  11  32  1   
 29  12  13  ar  
 30  12  14  ar  
 31  13  15  ar  
 32  13  46  1   
 33  14  16  ar  
 34  14  20  1   
 35  15  17  ar  
 36  15  45  1   
 37  16  17  ar  
 38  16  44  1   
 39  17  18  1   
 40  22  23  1   
 41  23  24  2   
 42  23  25  1   
 43  24  26  1   
 44  24  47  1   
 45  25  27  1   
 46  26  27  2   
 47  26  43  1   
 48  27  28  1   
 49  28  29  2   
 50  28  42  1   
 51  29  41  1   
@<TRIPOS>SUBSTRUCTURE
  1 Q101  19 GROUP 4 **** **** 0

# MOE 2011.10 (io_trps.svl 2011.10)

@<TRIPOS>MOLECULE
FXA101_22
49 51 1 0 0 
SMALL
USER_CHARGES


@<TRIPOS>ATOM
  1 N1       4.7170    14.5030    17.1560 N.am  1 Q101  -0.8960 
  2 S1       3.7970    15.8300    17.1720 S.o2  1 Q101   1.3220 
  3 N2       5.0940    11.4100    18.6260 N.am  1 Q101  -0.3970 
  4 N3       7.8030     8.6780    23.8420 N.am  1 Q101  -0.4840 
  5 O3       4.9640    13.3760    19.8200 O.2   1 Q101  -0.6040 
  6 O4       8.3500     7.2540    22.2260 O.2   1 Q101  -0.6060 
  7 C7       8.6200     9.8630    24.1500 C.3   1 Q101   0.0840 
  8 C8       7.0640     8.0450    24.9470 C.3   1 Q101   0.0840 
  9 C12      4.1390    13.2310    17.5240 C.3   1 Q101   0.1690 
 10 C13      4.4000    12.1200    16.5010 C.3   1 Q101  -0.1080 
 11 C14      4.6780    10.8760    17.3370 C.3   1 Q101   0.1020 
 12 C15      5.7930    10.6230    19.5940 C.ar  1 Q101   0.0330 
 13 C21      5.1120     9.8090    20.4890 C.ar  1 Q101  -0.1060 
 14 C22      7.1760    10.6720    19.6830 C.ar  1 Q101   0.1210 
 15 C24      5.7840     9.0620    21.4340 C.ar  1 Q101  -0.0920 
 16 C26      7.8850     9.9370    20.6200 C.ar  1 Q101  -0.1400 
 17 C27      7.1680     9.1220    21.4960 C.ar  1 Q101  -0.1150 
 18 C28      7.8120     8.2970    22.5610 C.2   1 Q101   0.6760 
 19 C50      4.7770    12.7160    18.8090 C.2   1 Q101   0.6950 
 20 F1       7.8410    11.4650    18.8260 F     1 Q101  -0.1400 
 21 O1       2.5180    15.3770    16.7190 O.2   1 Q101  -0.5930 
 22 CL1      0.5190    19.9420    23.4320 Cl    1 Q101  -0.0550 
 23 C1       1.4980    19.0750    22.2970 C.2   1 Q101   0.0330 
 24 C2       2.8420    18.9070    22.3450 C.2   1 Q101  -0.1460 
 25 S2       0.7500    18.3200    20.9450 S.3   1 Q101   0.0240 
 26 C3       3.2960    18.1530    21.2600 C.2   1 Q101  -0.1130 
 27 C4       2.2880    17.7520    20.3900 C.2   1 Q101  -0.0920 
 28 C5       2.5160    16.9550    19.1780 C.2   1 Q101   0.0810 
 29 C6       3.6620    16.3790    18.8160 C.2   1 Q101  -0.4200 
 30 O2       4.5740    16.7600    16.4030 O.2   1 Q101  -0.5930 
 31 H142     5.4650    10.2500    16.9030 H     1 Q101   0.0600 
 32 H141     3.7690    10.2830    17.4790 H     1 Q101   0.0600 
 33 H132     3.5620    11.9820    15.8120 H     1 Q101   0.0720 
 34 H131     5.2850    12.3620    15.8980 H     1 Q101   0.0720 
 35 H83      7.7370     7.3840    25.4890 H     1 Q101   0.0490 
 36 H82      6.6780     8.8240    25.6110 H     1 Q101   0.0490 
 37 H81      6.2280     7.4860    24.5360 H     1 Q101   0.0490 
 38 H73      8.2000    10.7210    23.6190 H     1 Q101   0.0490 
 39 H72      8.6320    10.0530    25.2260 H     1 Q101   0.0490 
 40 H71      9.6440     9.7050    23.7960 H     1 Q101   0.0490 
 41 H6       4.5130    16.2420    19.4670 H     1 Q101   0.1940 
 42 H5       1.6190    16.8100    18.5780 H     1 Q101   0.1560 
 43 H3       4.3380    17.8870    21.1130 H     1 Q101   0.1600 
 44 H26      8.9650     9.9960    20.6540 H     1 Q101   0.1600 
 45 H24      5.2240     8.4650    22.1410 H     1 Q101   0.1630 
 46 H21      4.0260     9.7620    20.4640 H     1 Q101   0.1530 
 47 H2       3.4860    19.2940    23.1220 H     1 Q101   0.1720 
 48 H12      3.0610    13.2940    17.7090 H     1 Q101   0.0910 
 49 H1       5.7110    14.6330    17.3600 H     1 Q101   0.4670 
@<TRIPOS>BOND
  1   1   2  am  
  2   1   9  1   
  3   1  49  1   
  4   2  21  2   
  5   2  29  1   
  6   2  30  2   
  7   3  11  1   
  8   3  12  1   
  9   3  19  am  
 10   4   7  1   
 11   4   8  1   
 12   4  18  am  
 13   5  19  2   
 14   6  18  2   
 15   7  38  1   
 16   7  39  1   
 17   7  40  1   
 18   8  35  1   
 19   8  36  1   
 20   8  37  1   
 21   9  10  1   
 22   9  19  1   
 23   9  48  1   
 24  10  11  1   
 25  10  33  1   
 26  10  34  1   
 27  11  31  1   
 28  11  32  1   
 29  12  13  ar  
 30  12  14  ar  
 31  13  15  ar  
 32  13  46  1   
 33  14  16  ar  
 34  14  20  1   
 35  15  17  ar  
 36  15  45  1   
 37  16  17  ar  
 38  16  44  1   
 39  17  18  1   
 40  22  23  1   
 41  23  24  2   
 42  23  25  1   
 43  24  26  1   
 44  24  47  1   
 45  25  27  1   
 46  26  27  2   
 47  26  43  1   
 48  27  28  1   
 49  28  29  2   
 50  28  42  1   
 51  29  41  1   
@<TRIPOS>SUBSTRUCTURE
  1 Q101   5 GROUP 4 **** **** 0

# MOE 2011.10 (io_trps.svl 2011.10)

@<TRIPOS>MOLECULE
FXA101_23
49 51 1 0 0 
SMALL
USER_CHARGES


@<TRIPOS>ATOM
  1 N1       7.5440     9.1320    22.0240 N.am  1 Q101  -0.8960 
  2 S1       8.6000     8.7170    23.1730 S.o2  1 Q101   1.3220 
  3 N2       4.3320     9.1800    20.7820 N.am  1 Q101  -0.3970 
  4 N3       1.2500     8.2340    15.0920 N.am  1 Q101  -0.4840 
  5 O3       5.9020     7.6040    20.1810 O.2   1 Q101  -0.6040 
  6 O4      -0.0800     9.5840    16.2540 O.2   1 Q101  -0.6060 
  7 C7       0.1230     7.9710    14.1830 C.3   1 Q101   0.0840 
  8 C8       2.5790     7.7330    14.7030 C.3   1 Q101   0.0840 
  9 C12      6.1340     8.9060    22.2370 C.3   1 Q101   0.1690 
 10 C13      5.3640    10.1680    22.6410 C.3   1 Q101  -0.1080 
 11 C14      4.0400    10.0760    21.8920 C.3   1 Q101   0.1020 
 12 C15      3.4950     9.0930    19.6250 C.ar  1 Q101   0.0330 
 13 C21      3.2170    10.2110    18.8510 C.ar  1 Q101  -0.1060 
 14 C22      2.9120     7.8880    19.2600 C.ar  1 Q101   0.1210 
 15 C24      2.3960    10.1320    17.7440 C.ar  1 Q101  -0.0920 
 16 C26      2.0830     7.7700    18.1560 C.ar  1 Q101  -0.1400 
 17 C27      1.8350     8.9120    17.3940 C.ar  1 Q101  -0.1150 
 18 C28      0.9450     8.9220    16.1960 C.2   1 Q101   0.6760 
 19 C50      5.4710     8.4610    20.9380 C.2   1 Q101   0.6950 
 20 F1       3.1690     6.8040    20.0110 F     1 Q101  -0.1400 
 21 O1       9.8190     9.3550    22.7800 O.2   1 Q101  -0.5930 
 22 CL1     13.6640     7.1250    26.1900 Cl    1 Q101  -0.0550 
 23 C1      11.9770     7.4310    26.4280 C.2   1 Q101   0.0330 
 24 C2      11.2210     7.0400    27.4830 C.2   1 Q101  -0.1460 
 25 S2      11.1090     8.3240    25.2420 S.3   1 Q101   0.0240 
 26 C3       9.8960     7.4620    27.3380 C.2   1 Q101  -0.1130 
 27 C4       9.6540     8.1740    26.1700 C.2   1 Q101  -0.0920 
 28 C5       8.3440     8.7170    25.7930 C.2   1 Q101   0.0810 
 29 C6       8.0590     9.3920    24.6800 C.2   1 Q101  -0.4200 
 30 O2       8.4840     7.2860    23.2020 O.2   1 Q101  -0.5930 
 31 H142     3.7000    11.0500    21.5270 H     1 Q101   0.0600 
 32 H141     3.2630     9.6210    22.5140 H     1 Q101   0.0600 
 33 H132     5.2280    10.2440    23.7240 H     1 Q101   0.0720 
 34 H131     5.9080    11.0630    22.3140 H     1 Q101   0.0720 
 35 H83      2.6570     6.6850    14.9830 H     1 Q101   0.0490 
 36 H82      2.7020     7.8500    13.6220 H     1 Q101   0.0490 
 37 H81      3.3390     8.3220    15.2100 H     1 Q101   0.0490 
 38 H73     -0.2450     8.9260    13.8020 H     1 Q101   0.0490 
 39 H72      0.4370     7.3290    13.3560 H     1 Q101   0.0490 
 40 H71     -0.6880     7.4840    14.7360 H     1 Q101   0.0490 
 41 H6       7.5060    10.3200    24.6500 H     1 Q101   0.1940 
 42 H5       7.5520     8.4740    26.5010 H     1 Q101   0.1560 
 43 H3       9.1250     7.2680    28.0780 H     1 Q101   0.1600 
 44 H26      1.6530     6.8120    17.8970 H     1 Q101   0.1600 
 45 H24      2.1700    11.0270    17.1810 H     1 Q101   0.1630 
 46 H21      3.6370    11.1770    19.1190 H     1 Q101   0.1530 
 47 H2      11.5870     6.4820    28.3330 H     1 Q101   0.1720 
 48 H12      5.9390     8.1210    22.9770 H     1 Q101   0.0910 
 49 H1       7.8780     9.0840    21.0570 H     1 Q101   0.4670 
@<TRIPOS>BOND
  1   1   2  am  
  2   1   9  1   
  3   1  49  1   
  4   2  21  2   
  5   2  29  1   
  6   2  30  2   
  7   3  11  1   
  8   3  12  1   
  9   3  19  am  
 10   4   7  1   
 11   4   8  1   
 12   4  18  am  
 13   5  19  2   
 14   6  18  2   
 15   7  38  1   
 16   7  39  1   
 17   7  40  1   
 18   8  35  1   
 19   8  36  1   
 20   8  37  1   
 21   9  10  1   
 22   9  19  1   
 23   9  48  1   
 24  10  11  1   
 25  10  33  1   
 26  10  34  1   
 27  11  31  1   
 28  11  32  1   
 29  12  13  ar  
 30  12  14  ar  
 31  13  15  ar  
 32  13  46  1   
 33  14  16  ar  
 34  14  20  1   
 35  15  17  ar  
 36  15  45  1   
 37  16  17  ar  
 38  16  44  1   
 39  17  18  1   
 40  22  23  1   
 41  23  24  2   
 42  23  25  1   
 43  24  26  1   
 44  24  47  1   
 45  25  27  1   
 46  26  27  2   
 47  26  43  1   
 48  27  28  1   
 49  28  29  2   
 50  28  42  1   
 51  29  41  1   
@<TRIPOS>SUBSTRUCTURE
  1 Q101  19 GROUP 4 **** **** 0

# MOE 2011.10 (io_trps.svl 2011.10)

@<TRIPOS>MOLECULE
FXA101_24
49 51 1 0 0 
SMALL
USER_CHARGES


@<TRIPOS>ATOM
  1 N1       7.2190     9.7200    21.4620 N.am  1 Q101  -0.8960 
  2 S1       7.7710    10.2670    22.8780 S.o2  1 Q101   1.3220 
  3 N2       5.9080     7.1950    19.5200 N.am  1 Q101  -0.3970 
  4 N3       4.8540     3.7650    14.1310 N.am  1 Q101  -0.4840 
  5 O3       8.0730     7.9580    19.3180 O.2   1 Q101  -0.6040 
  6 O4       5.7900     5.6120    13.3230 O.2   1 Q101  -0.6060 
  7 C7       3.4570     3.6200    14.5680 C.3   1 Q101   0.0840 
  8 C8       5.5250     2.5800    13.5700 C.3   1 Q101   0.0840 
  9 C12      6.7740     8.3500    21.3510 C.3   1 Q101   0.1690 
 10 C13      5.2650     8.1780    21.5490 C.3   1 Q101  -0.1080 
 11 C14      4.8520     7.1320    20.5200 C.3   1 Q101   0.1020 
 12 C15      5.7530     6.6550    18.2040 C.ar  1 Q101   0.0330 
 13 C21      5.9620     5.3070    17.9490 C.ar  1 Q101  -0.1060 
 14 C22      5.4140     7.4740    17.1370 C.ar  1 Q101   0.1210 
 15 C24      5.8290     4.7880    16.6780 C.ar  1 Q101  -0.0920 
 16 C26      5.2720     6.9890    15.8470 C.ar  1 Q101  -0.1400 
 17 C27      5.4800     5.6260    15.6290 C.ar  1 Q101  -0.1150 
 18 C28      5.3780     4.9840    14.2850 C.2   1 Q101   0.6760 
 19 C50      7.0310     7.8260    19.9430 C.2   1 Q101   0.6950 
 20 F1       5.2200     8.7810    17.3750 F     1 Q101  -0.1400 
 21 O1       6.7020    10.0130    23.7940 O.2   1 Q101  -0.5930 
 22 CL1     14.0310     7.2860    26.6370 Cl    1 Q101  -0.0550 
 23 C1      12.3500     7.5480    26.3140 C.2   1 Q101   0.0330 
 24 C2      11.3090     7.2250    27.1180 C.2   1 Q101  -0.1460 
 25 S2      11.8840     8.2970    24.8390 S.3   1 Q101   0.0240 
 26 C3      10.0900     7.5810    26.5340 C.2   1 Q101  -0.1130 
 27 C4      10.2160     8.1760    25.2840 C.2   1 Q101  -0.0920 
 28 C5       9.0820     8.6330    24.4730 C.2   1 Q101   0.0810 
 29 C6       9.1520     9.3130    23.3290 C.2   1 Q101  -0.4200 
 30 O2       8.1780    11.6060    22.5590 O.2   1 Q101  -0.5930 
 31 H142     3.8780     7.3520    20.0720 H     1 Q101   0.0600 
 32 H141     4.8410     6.1280    20.9560 H     1 Q101   0.0600 
 33 H132     5.0100     7.8820    22.5710 H     1 Q101   0.0720 
 34 H131     4.7460     9.1220    21.3410 H     1 Q101   0.0720 
 35 H83      5.8920     1.9620    14.3860 H     1 Q101   0.0490 
 36 H82      4.8100     2.0210    12.9590 H     1 Q101   0.0490 
 37 H81      6.3480     2.9080    12.9390 H     1 Q101   0.0490 
 38 H73      2.8290     4.2560    13.9380 H     1 Q101   0.0490 
 39 H72      3.1360     2.5780    14.4930 H     1 Q101   0.0490 
 40 H71      3.3590     3.9600    15.6050 H     1 Q101   0.0490 
 41 H6      10.0100     9.3220    22.6730 H     1 Q101   0.1940 
 42 H5       8.1130     8.3170    24.8600 H     1 Q101   0.1560 
 43 H3       9.1300     7.4260    27.0160 H     1 Q101   0.1600 
 44 H26      4.9990     7.6560    15.0400 H     1 Q101   0.1600 
 45 H24      6.0340     3.7400    16.5040 H     1 Q101   0.1630 
 46 H21      6.2510     4.6380    18.7570 H     1 Q101   0.1530 
 47 H2      11.3990     6.7590    28.0900 H     1 Q101   0.1720 
 48 H12      7.3000     7.6780    22.0400 H     1 Q101   0.0910 
 49 H1       7.6200    10.1430    20.6210 H     1 Q101   0.4670 
@<TRIPOS>BOND
  1   1   2  am  
  2   1   9  1   
  3   1  49  1   
  4   2  21  2   
  5   2  29  1   
  6   2  30  2   
  7   3  11  1   
  8   3  12  1   
  9   3  19  am  
 10   4   7  1   
 11   4   8  1   
 12   4  18  am  
 13   5  19  2   
 14   6  18  2   
 15   7  38  1   
 16   7  39  1   
 17   7  40  1   
 18   8  35  1   
 19   8  36  1   
 20   8  37  1   
 21   9  10  1   
 22   9  19  1   
 23   9  48  1   
 24  10  11  1   
 25  10  33  1   
 26  10  34  1   
 27  11  31  1   
 28  11  32  1   
 29  12  13  ar  
 30  12  14  ar  
 31  13  15  ar  
 32  13  46  1   
 33  14  16  ar  
 34  14  20  1   
 35  15  17  ar  
 36  15  45  1   
 37  16  17  ar  
 38  16  44  1   
 39  17  18  1   
 40  22  23  1   
 41  23  24  2   
 42  23  25  1   
 43  24  26  1   
 44  24  47  1   
 45  25  27  1   
 46  26  27  2   
 47  26  43  1   
 48  27  28  1   
 49  28  29  2   
 50  28  42  1   
 51  29  41  1   
@<TRIPOS>SUBSTRUCTURE
  1 Q101  19 GROUP 4 **** **** 0

# MOE 2011.10 (io_trps.svl 2011.10)

@<TRIPOS>MOLECULE
FXA101_25
49 51 1 0 0 
SMALL
USER_CHARGES


@<TRIPOS>ATOM
  1 N1       5.1940     7.6740    22.1120 N.am  1 Q101  -0.8960 
  2 S1       6.5240     8.5360    22.4250 S.o2  1 Q101   1.3220 
  3 N2       3.5380     4.6680    22.4040 N.am  1 Q101  -0.3970 
  4 N3       1.2120     0.0560    18.4290 N.am  1 Q101  -0.4840 
  5 O3       5.3250     5.0000    20.9880 O.2   1 Q101  -0.6040 
  6 O4       0.2820    -0.4070    20.3940 O.2   1 Q101  -0.6060 
  7 C7       0.7500    -1.2600    17.9570 C.3   1 Q101   0.0840 
  8 C8       1.8000     0.9740    17.4400 C.3   1 Q101   0.0840 
  9 C12      4.9170     6.4860    22.8860 C.3   1 Q101   0.1690 
 10 C13      3.6480     6.5930    23.7390 C.3   1 Q101  -0.1080 
 11 C14      2.9890     5.2220    23.6330 C.3   1 Q101   0.1020 
 12 C15      2.9350     3.5630    21.7240 C.ar  1 Q101   0.0330 
 13 C21      1.7100     3.6920    21.0840 C.ar  1 Q101  -0.1060 
 14 C22      3.5480     2.3190    21.7100 C.ar  1 Q101   0.1210 
 15 C24      1.1200     2.6230    20.4420 C.ar  1 Q101  -0.0920 
 16 C26      2.9850     1.2220    21.0770 C.ar  1 Q101  -0.1400 
 17 C27      1.7590     1.3920    20.4340 C.ar  1 Q101  -0.1150 
 18 C28      1.0400     0.2860    19.7340 C.2   1 Q101   0.6760 
 19 C50      4.6490     5.3060    21.9590 C.2   1 Q101   0.6950 
 20 F1       4.7290     2.1850    22.3370 F     1 Q101  -0.1400 
 21 O1       6.5320     9.5500    21.4160 O.2   1 Q101  -0.5930 
 22 CL1     12.4270     7.7710    26.0310 Cl    1 Q101  -0.0550 
 23 C1      10.9040     8.4120    25.5130 C.2   1 Q101   0.0330 
 24 C2      10.7010     9.5430    24.7950 C.2   1 Q101  -0.1460 
 25 S2       9.4580     7.5730    25.9140 S.3   1 Q101   0.0240 
 26 C3       9.3400     9.7540    24.5600 C.2   1 Q101  -0.1130 
 27 C4       8.5140     8.7770    25.1030 C.2   1 Q101  -0.0920 
 28 C5       7.0510     8.7810    24.9930 C.2   1 Q101   0.0810 
 29 C6       6.3360     9.2800    23.9850 C.2   1 Q101  -0.4200 
 30 O2       7.5460     7.5280    22.4780 O.2   1 Q101  -0.5930 
 31 H142     1.8980     5.2880    23.5780 H     1 Q101   0.0600 
 32 H141     3.2800     4.5770    24.4690 H     1 Q101   0.0600 
 33 H132     3.8640     6.8740    24.7740 H     1 Q101   0.0720 
 34 H131     2.9770     7.3550    23.3240 H     1 Q101   0.0720 
 35 H83      2.8450     0.7110    17.2910 H     1 Q101   0.0490 
 36 H82      1.2470     0.8880    16.5000 H     1 Q101   0.0490 
 37 H81      1.7120     1.9920    17.8100 H     1 Q101   0.0490 
 38 H73     -0.3330    -1.3150    18.0910 H     1 Q101   0.0490 
 39 H72      1.0100    -1.4030    16.9050 H     1 Q101   0.0490 
 40 H71      1.2130    -2.0490    18.5590 H     1 Q101   0.0490 
 41 H6       5.6410    10.1020    24.0730 H     1 Q101   0.1940 
 42 H5       6.5500     8.2710    25.8160 H     1 Q101   0.1560 
 43 H3       8.9560    10.5950    23.9900 H     1 Q101   0.1600 
 44 H26      3.4970     0.2690    21.0800 H     1 Q101   0.1600 
 45 H24      0.1480     2.7450    19.9820 H     1 Q101   0.1630 
 46 H21      1.1890     4.6460    21.0930 H     1 Q101   0.1530 
 47 H2      11.4830    10.1990    24.4390 H     1 Q101   0.1720 
 48 H12      5.7540     6.1970    23.5320 H     1 Q101   0.0910 
 49 H1       4.8630     7.6810    21.1440 H     1 Q101   0.4670 
@<TRIPOS>BOND
  1   1   2  am  
  2   1   9  1   
  3   1  49  1   
  4   2  21  2   
  5   2  29  1   
  6   2  30  2   
  7   3  11  1   
  8   3  12  1   
  9   3  19  am  
 10   4   7  1   
 11   4   8  1   
 12   4  18  am  
 13   5  19  2   
 14   6  18  2   
 15   7  38  1   
 16   7  39  1   
 17   7  40  1   
 18   8  35  1   
 19   8  36  1   
 20   8  37  1   
 21   9  10  1   
 22   9  19  1   
 23   9  48  1   
 24  10  11  1   
 25  10  33  1   
 26  10  34  1   
 27  11  31  1   
 28  11  32  1   
 29  12  13  ar  
 30  12  14  ar  
 31  13  15  ar  
 32  13  46  1   
 33  14  16  ar  
 34  14  20  1   
 35  15  17  ar  
 36  15  45  1   
 37  16  17  ar  
 38  16  44  1   
 39  17  18  1   
 40  22  23  1   
 41  23  24  2   
 42  23  25  1   
 43  24  26  1   
 44  24  47  1   
 45  25  27  1   
 46  26  27  2   
 47  26  43  1   
 48  27  28  1   
 49  28  29  2   
 50  28  42  1   
 51  29  41  1   
@<TRIPOS>SUBSTRUCTURE
  1 Q101  19 GROUP 4 **** **** 0

# MOE 2011.10 (io_trps.svl 2011.10)

@<TRIPOS>MOLECULE
FXA101_26
49 51 1 0 0 
SMALL
USER_CHARGES


@<TRIPOS>ATOM
  1 N1       4.5470     6.0080    17.2850 N.am  1 Q101  -0.8960 
  2 S1       5.3080     5.0830    16.2010 S.o2  1 Q101   1.3220 
  3 N2       5.5900     8.3020    19.6330 N.am  1 Q101  -0.3970 
  4 N3       8.9730     8.8380    25.2120 N.am  1 Q101  -0.4840 
  5 O3       6.8230     6.4500    19.0320 O.2   1 Q101  -0.6040 
  6 O4       6.9570     9.6600    25.6600 O.2   1 Q101  -0.6060 
  7 C7       9.0960     7.5610    25.9320 C.3   1 Q101   0.0840 
  8 C8      10.2030     9.6050    24.9560 C.3   1 Q101   0.0840 
  9 C12      5.0600     7.3250    17.5820 C.3   1 Q101   0.1690 
 10 C13      3.9700     8.3410    17.9380 C.3   1 Q101  -0.1080 
 11 C14      4.5610     9.1670    19.0750 C.3   1 Q101   0.1020 
 12 C15      6.1510     8.5140    20.9320 C.ar  1 Q101   0.0330 
 13 C21      5.5230     8.0390    22.0740 C.ar  1 Q101  -0.1060 
 14 C22      7.3290     9.2300    21.0870 C.ar  1 Q101   0.1210 
 15 C24      6.0540     8.2570    23.3290 C.ar  1 Q101  -0.0920 
 16 C26      7.8920     9.4700    22.3310 C.ar  1 Q101  -0.1400 
 17 C27      7.2390     8.9660    23.4560 C.ar  1 Q101  -0.1150 
 18 C28      7.7300     9.1730    24.8510 C.2   1 Q101   0.6760 
 19 C50      5.9470     7.2750    18.8210 C.2   1 Q101   0.6950 
 20 F1       7.9370     9.7020    19.9860 F     1 Q101  -0.1400 
 21 O1       6.6830     5.1460    16.5870 O.2   1 Q101  -0.5930 
 22 CL1     10.3870     1.0900    17.5880 Cl    1 Q101  -0.0550 
 23 C1       8.7590     1.5480    17.9590 C.2   1 Q101   0.0330 
 24 C2       8.1660     1.5250    19.1760 C.2   1 Q101  -0.1460 
 25 S2       7.7340     2.1030    16.6950 S.3   1 Q101   0.0240 
 26 C3       6.8400     1.9600    19.1010 C.2   1 Q101  -0.1130 
 27 C4       6.4340     2.3120    17.8190 C.2   1 Q101  -0.0920 
 28 C5       5.0880     2.7950    17.4860 C.2   1 Q101   0.0810 
 29 C6       4.7360     3.4510    16.3810 C.2   1 Q101  -0.4200 
 30 O2       4.8570     5.6290    14.9520 O.2   1 Q101  -0.5930 
 31 H142     3.8150     9.4240    19.8340 H     1 Q101   0.0600 
 32 H141     5.0350    10.0790    18.6980 H     1 Q101   0.0600 
 33 H132     3.6780     8.9570    17.0820 H     1 Q101   0.0720 
 34 H131     3.0700     7.8230    18.2920 H     1 Q101   0.0720 
 35 H83     10.4520    10.1810    25.8440 H     1 Q101   0.0490 
 36 H82     11.0120     8.9100    24.7130 H     1 Q101   0.0490 
 37 H81     10.0370    10.2630    24.1070 H     1 Q101   0.0490 
 38 H73      8.7920     6.7530    25.2600 H     1 Q101   0.0490 
 39 H72     10.1240     7.4060    26.2680 H     1 Q101   0.0490 
 40 H71      8.4240     7.5600    26.7960 H     1 Q101   0.0490 
 41 H6       4.1340     3.0350    15.5860 H     1 Q101   0.1940 
 42 H5       4.3330     2.5220    18.2220 H     1 Q101   0.1560 
 43 H3       6.1860     2.0340    19.9640 H     1 Q101   0.1600 
 44 H26      8.8170    10.0250    22.4130 H     1 Q101   0.1600 
 45 H24      5.5230     7.9040    24.2030 H     1 Q101   0.1630 
 46 H21      4.5860     7.4930    21.9930 H     1 Q101   0.1530 
 47 H2       8.6480     1.2190    20.0940 H     1 Q101   0.1720 
 48 H12      5.6730     7.7330    16.7700 H     1 Q101   0.0910 
 49 H1       4.0630     5.5200    18.0430 H     1 Q101   0.4670 
@<TRIPOS>BOND
  1   1   2  am  
  2   1   9  1   
  3   1  49  1   
  4   2  21  2   
  5   2  29  1   
  6   2  30  2   
  7   3  11  1   
  8   3  12  1   
  9   3  19  am  
 10   4   7  1   
 11   4   8  1   
 12   4  18  am  
 13   5  19  2   
 14   6  18  2   
 15   7  38  1   
 16   7  39  1   
 17   7  40  1   
 18   8  35  1   
 19   8  36  1   
 20   8  37  1   
 21   9  10  1   
 22   9  19  1   
 23   9  48  1   
 24  10  11  1   
 25  10  33  1   
 26  10  34  1   
 27  11  31  1   
 28  11  32  1   
 29  12  13  ar  
 30  12  14  ar  
 31  13  15  ar  
 32  13  46  1   
 33  14  16  ar  
 34  14  20  1   
 35  15  17  ar  
 36  15  45  1   
 37  16  17  ar  
 38  16  44  1   
 39  17  18  1   
 40  22  23  1   
 41  23  24  2   
 42  23  25  1   
 43  24  26  1   
 44  24  47  1   
 45  25  27  1   
 46  26  27  2   
 47  26  43  1   
 48  27  28  1   
 49  28  29  2   
 50  28  42  1   
 51  29  41  1   
@<TRIPOS>SUBSTRUCTURE
  1 Q101   5 GROUP 4 **** **** 0

# MOE 2011.10 (io_trps.svl 2011.10)

@<TRIPOS>MOLECULE
FXA101_27
49 51 1 0 0 
SMALL
USER_CHARGES


@<TRIPOS>ATOM
  1 N1       6.3190    10.2790    22.9210 N.am  1 Q101  -0.8960 
  2 S1       7.7240    10.4870    22.1520 S.o2  1 Q101   1.3220 
  3 N2       3.1180     9.0060    22.9290 N.am  1 Q101  -0.3970 
  4 N3      -2.9450    11.3080    23.3670 N.am  1 Q101  -0.4840 
  5 O3       3.6930    10.9880    21.9040 O.2   1 Q101  -0.6040 
  6 O4      -3.1700     9.1760    23.9520 O.2   1 Q101  -0.6060 
  7 C7      -3.2550    12.1230    24.5520 C.3   1 Q101   0.0840 
  8 C8      -3.2060    11.8940    22.0410 C.3   1 Q101   0.0840 
  9 C12      5.3780     9.2980    22.4320 C.3   1 Q101   0.1690 
 10 C13      5.2300     8.0800    23.3510 C.3   1 Q101  -0.1080 
 11 C14      3.7410     7.7540    23.3330 C.3   1 Q101   0.1020 
 12 C15      1.7260     9.2700    23.1280 C.ar  1 Q101   0.0330 
 13 C21      0.7910     8.9870    22.1420 C.ar  1 Q101  -0.1060 
 14 C22      1.2740     9.8450    24.3060 C.ar  1 Q101   0.1210 
 15 C24     -0.5500     9.2560    22.3250 C.ar  1 Q101  -0.0920 
 16 C26     -0.0640    10.1300    24.5260 C.ar  1 Q101  -0.1400 
 17 C27     -0.9770     9.8220    23.5180 C.ar  1 Q101  -0.1150 
 18 C28     -2.4410    10.0970    23.6230 C.2   1 Q101   0.6760 
 19 C50      3.9780     9.8970    22.3740 C.2   1 Q101   0.6950 
 20 F1       2.1750    10.1310    25.2600 F     1 Q101  -0.1400 
 21 O1       8.0950    11.8350    22.4530 O.2   1 Q101  -0.5930 
 22 CL1     13.6210     7.3930    26.3860 Cl    1 Q101  -0.0550 
 23 C1      11.9840     7.8540    26.0590 C.2   1 Q101   0.0330 
 24 C2      10.9240     7.7340    26.8940 C.2   1 Q101  -0.1460 
 25 S2      11.5940     8.5460    24.5340 S.3   1 Q101   0.0240 
 26 C3       9.7530     8.2060    26.2950 C.2   1 Q101  -0.1130 
 27 C4       9.9330     8.6840    25.0020 C.2   1 Q101  -0.0920 
 28 C5       8.8550     9.2270    24.1680 C.2   1 Q101   0.0810 
 29 C6       8.8900     9.4020    22.8470 C.2   1 Q101  -0.4200 
 30 O2       7.4100    10.0810    20.8110 O.2   1 Q101  -0.5930 
 31 H142     3.3730     7.4350    24.3120 H     1 Q101   0.0600 
 32 H141     3.5120     6.9910    22.5830 H     1 Q101   0.0600 
 33 H132     5.8470     7.2370    23.0270 H     1 Q101   0.0720 
 34 H131     5.5360     8.3380    24.3720 H     1 Q101   0.0720 
 35 H83     -4.2580    11.7650    21.7990 H     1 Q101   0.0490 
 36 H82     -2.9470    12.9560    22.0640 H     1 Q101   0.0490 
 37 H81     -2.5800    11.3940    21.3070 H     1 Q101   0.0490 
 38 H73     -2.3220    12.3350    25.0810 H     1 Q101   0.0490 
 39 H72     -3.7450    13.0560    24.2600 H     1 Q101   0.0490 
 40 H71     -3.9120    11.5600    25.2240 H     1 Q101   0.0490 
 41 H6       9.6000     8.9280    22.1840 H     1 Q101   0.1940 
 42 H5       7.9430     9.4460    24.7220 H     1 Q101   0.1560 
 43 H3       8.7900     8.2170    26.7960 H     1 Q101   0.1600 
 44 H26     -0.3810    10.5720    25.4620 H     1 Q101   0.1600 
 45 H24     -1.2500     9.0570    21.5250 H     1 Q101   0.1630 
 46 H21      1.1100     8.5570    21.1960 H     1 Q101   0.1530 
 47 H2      10.9690     7.3340    27.8980 H     1 Q101   0.1720 
 48 H12      5.6160     8.9500    21.4200 H     1 Q101   0.0910 
 49 H1       5.9260    11.1020    23.3860 H     1 Q101   0.4670 
@<TRIPOS>BOND
  1   1   2  am  
  2   1   9  1   
  3   1  49  1   
  4   2  21  2   
  5   2  29  1   
  6   2  30  2   
  7   3  11  1   
  8   3  12  1   
  9   3  19  am  
 10   4   7  1   
 11   4   8  1   
 12   4  18  am  
 13   5  19  2   
 14   6  18  2   
 15   7  38  1   
 16   7  39  1   
 17   7  40  1   
 18   8  35  1   
 19   8  36  1   
 20   8  37  1   
 21   9  10  1   
 22   9  19  1   
 23   9  48  1   
 24  10  11  1   
 25  10  33  1   
 26  10  34  1   
 27  11  31  1   
 28  11  32  1   
 29  12  13  ar  
 30  12  14  ar  
 31  13  15  ar  
 32  13  46  1   
 33  14  16  ar  
 34  14  20  1   
 35  15  17  ar  
 36  15  45  1   
 37  16  17  ar  
 38  16  44  1   
 39  17  18  1   
 40  22  23  1   
 41  23  24  2   
 42  23  25  1   
 43  24  26  1   
 44  24  47  1   
 45  25  27  1   
 46  26  27  2   
 47  26  43  1   
 48  27  28  1   
 49  28  29  2   
 50  28  42  1   
 51  29  41  1   
@<TRIPOS>SUBSTRUCTURE
  1 Q101  19 GROUP 4 **** **** 0

# MOE 2011.10 (io_trps.svl 2011.10)

@<TRIPOS>MOLECULE
FXA101_28
49 51 1 0 0 
SMALL
USER_CHARGES


@<TRIPOS>ATOM
  1 N1       3.3100     5.9030    14.3830 N.am  1 Q101  -0.8960 
  2 S1       2.4770     5.4460    13.0770 S.o2  1 Q101   1.3220 
  3 N2       3.5470     7.9780    17.1230 N.am  1 Q101  -0.3970 
  4 N3       7.6410     8.8120    22.0870 N.am  1 Q101  -0.4840 
  5 O3       5.3380     7.4460    15.7750 O.2   1 Q101  -0.6040 
  6 O4       5.8090     9.8580    22.7880 O.2   1 Q101  -0.6060 
  7 C7       7.8410     7.9160    23.2370 C.3   1 Q101   0.0840 
  8 C8       8.8130     9.1390    21.2580 C.3   1 Q101   0.0840 
  9 C12      3.0380     7.1860    14.9890 C.3   1 Q101   0.1690 
 10 C13      1.7530     7.2110    15.8220 C.3   1 Q101  -0.1080 
 11 C14      2.0950     8.0540    17.0450 C.3   1 Q101   0.1020 
 12 C15      4.2710     8.3150    18.3100 C.ar  1 Q101   0.0330 
 13 C21      4.8470     7.3340    19.1050 C.ar  1 Q101  -0.1060 
 14 C22      4.3940     9.6360    18.7150 C.ar  1 Q101   0.1210 
 15 C24      5.5310     7.6560    20.2590 C.ar  1 Q101  -0.0920 
 16 C26      5.0730     9.9970    19.8680 C.ar  1 Q101  -0.1400 
 17 C27      5.6490     8.9850    20.6370 C.ar  1 Q101  -0.1150 
 18 C28      6.3880     9.2410    21.9090 C.2   1 Q101   0.6760 
 19 C50      4.1380     7.5410    15.9830 C.2   1 Q101   0.6950 
 20 F1       3.8310    10.5890    17.9550 F     1 Q101  -0.1400 
 21 O1       1.4350     6.4200    12.9660 O.2   1 Q101  -0.5930 
 22 CL1      5.5880    -0.0330    13.8450 Cl    1 Q101  -0.0550 
 23 C1       5.5770     1.6680    13.5220 C.2   1 Q101   0.0330 
 24 C2       6.2240     2.6320    14.2210 C.2   1 Q101  -0.1460 
 25 S2       4.6740     2.2650    12.1860 S.3   1 Q101   0.0240 
 26 C3       5.9870     3.8960    13.6760 C.2   1 Q101  -0.1130 
 27 C4       5.1580     3.8840    12.5610 C.2   1 Q101  -0.0920 
 28 C5       4.7600     5.0860    11.8180 C.2   1 Q101   0.0810 
 29 C6       3.5230     5.5650    11.6940 C.2   1 Q101  -0.4200 
 30 O2       2.1840     4.0690    13.3580 O.2   1 Q101  -0.5930 
 31 H142     1.6350     7.6670    17.9600 H     1 Q101   0.0600 
 32 H141     1.8060     9.1000    16.8990 H     1 Q101   0.0600 
 33 H132     0.9010     7.6110    15.2640 H     1 Q101   0.0720 
 34 H131     1.4890     6.1950    16.1400 H     1 Q101   0.0720 
 35 H83      9.3690     9.9440    21.7320 H     1 Q101   0.0490 
 36 H82      9.4400     8.2480    21.1610 H     1 Q101   0.0490 
 37 H81      8.4720     9.4390    20.2700 H     1 Q101   0.0490 
 38 H73      7.2740     6.9980    23.0640 H     1 Q101   0.0490 
 39 H72      8.9020     7.6860    23.3660 H     1 Q101   0.0490 
 40 H71      7.4570     8.3920    24.1460 H     1 Q101   0.0490 
 41 H6       3.1320     6.0320    10.8020 H     1 Q101   0.1940 
 42 H5       5.6000     5.6290    11.3860 H     1 Q101   0.1560 
 43 H3       6.4230     4.8080    14.0730 H     1 Q101   0.1600 
 44 H26      5.1560    11.0390    20.1480 H     1 Q101   0.1600 
 45 H24      5.9380     6.8670    20.8780 H     1 Q101   0.1630 
 46 H21      4.7520     6.2860    18.8320 H     1 Q101   0.1530 
 47 H2       6.8520     2.4550    15.0840 H     1 Q101   0.1720 
 48 H12      3.0000     8.0000    14.2560 H     1 Q101   0.0910 
 49 H1       4.2680     5.5510    14.4610 H     1 Q101   0.4670 
@<TRIPOS>BOND
  1   1   2  am  
  2   1   9  1   
  3   1  49  1   
  4   2  21  2   
  5   2  29  1   
  6   2  30  2   
  7   3  11  1   
  8   3  12  1   
  9   3  19  am  
 10   4   7  1   
 11   4   8  1   
 12   4  18  am  
 13   5  19  2   
 14   6  18  2   
 15   7  38  1   
 16   7  39  1   
 17   7  40  1   
 18   8  35  1   
 19   8  36  1   
 20   8  37  1   
 21   9  10  1   
 22   9  19  1   
 23   9  48  1   
 24  10  11  1   
 25  10  33  1   
 26  10  34  1   
 27  11  31  1   
 28  11  32  1   
 29  12  13  ar  
 30  12  14  ar  
 31  13  15  ar  
 32  13  46  1   
 33  14  16  ar  
 34  14  20  1   
 35  15  17  ar  
 36  15  45  1   
 37  16  17  ar  
 38  16  44  1   
 39  17  18  1   
 40  22  23  1   
 41  23  24  2   
 42  23  25  1   
 43  24  26  1   
 44  24  47  1   
 45  25  27  1   
 46  26  27  2   
 47  26  43  1   
 48  27  28  1   
 49  28  29  2   
 50  28  42  1   
 51  29  41  1   
@<TRIPOS>SUBSTRUCTURE
  1 Q101  19 GROUP 4 **** **** 0

# MOE 2011.10 (io_trps.svl 2011.10)

@<TRIPOS>MOLECULE
FXA101_29
49 51 1 0 0 
SMALL
USER_CHARGES


@<TRIPOS>ATOM
  1 N1       6.6090     9.5520    22.4560 N.am  1 Q101  -0.8960 
  2 S1       6.5950     8.8590    23.9150 S.o2  1 Q101   1.3220 
  3 N2       4.6860    10.3430    19.7100 N.am  1 Q101  -0.3970 
  4 N3       4.3260    13.3520    13.8960 N.am  1 Q101  -0.4840 
  5 O3       6.9700    10.0460    19.6180 O.2   1 Q101  -0.6040 
  6 O4       3.5910    14.8230    15.3910 O.2   1 Q101  -0.6060 
  7 C7       3.1710    13.0890    13.0230 C.3   1 Q101   0.0840 
  8 C8       5.6730    13.2080    13.3170 C.3   1 Q101   0.0840 
  9 C12      5.6460     9.1400    21.4620 C.3   1 Q101   0.1690 
 10 C13      4.1980     9.4780    21.8340 C.3   1 Q101  -0.1080 
 11 C14      3.5550     9.9330    20.5290 C.3   1 Q101   0.1020 
 12 C15      4.5360    11.1700    18.5520 C.ar  1 Q101   0.0330 
 13 C21      4.6000    12.5540    18.6420 C.ar  1 Q101  -0.1060 
 14 C22      4.2940    10.6100    17.3070 C.ar  1 Q101   0.1210 
 15 C24      4.4400    13.3540    17.5290 C.ar  1 Q101  -0.0920 
 16 C26      4.1260    11.3810    16.1670 C.ar  1 Q101  -0.1400 
 17 C27      4.2080    12.7680    16.2930 C.ar  1 Q101  -0.1150 
 18 C28      4.0260    13.7080    15.1480 C.2   1 Q101   0.6760 
 19 C50      5.8840     9.8900    20.1570 C.2   1 Q101   0.6950 
 20 F1       4.2210     9.2720    17.2150 F     1 Q101  -0.1400 
 21 O1       5.6180     7.8200    23.8020 O.2   1 Q101  -0.5930 
 22 CL1     14.0120     7.4140    26.2360 Cl    1 Q101  -0.0550 
 23 C1      12.2860     7.4140    26.3670 C.2   1 Q101   0.0330 
 24 C2      11.5500     6.9520    27.4070 C.2   1 Q101  -0.1460 
 25 S2      11.3440     8.0570    25.0800 S.3   1 Q101   0.0240 
 26 C3      10.1820     7.1100    27.1670 C.2   1 Q101  -0.1130 
 27 C4       9.8870     7.6940    25.9410 C.2   1 Q101  -0.0920 
 28 C5       8.5260     7.9600    25.4630 C.2   1 Q101   0.0810 
 29 C6       8.1570     8.1500    24.1960 C.2   1 Q101  -0.4200 
 30 O2       6.3950     9.9780    24.7920 O.2   1 Q101  -0.5930 
 31 H142     2.8590    10.7650    20.6760 H     1 Q101   0.0600 
 32 H141     3.0430     9.1040    20.0290 H     1 Q101   0.0600 
 33 H132     3.6740     8.6300    22.2850 H     1 Q101   0.0720 
 34 H131     4.1770    10.3010    22.5590 H     1 Q101   0.0720 
 35 H83      5.9550    12.1580    13.3350 H     1 Q101   0.0490 
 36 H82      5.6610    13.5820    12.2900 H     1 Q101   0.0490 
 37 H81      6.3710    13.8020    13.9010 H     1 Q101   0.0490 
 38 H73      2.6090    14.0190    12.9020 H     1 Q101   0.0490 
 39 H72      3.5010    12.7170    12.0500 H     1 Q101   0.0490 
 40 H71      2.5160    12.3490    13.4940 H     1 Q101   0.0490 
 41 H6       8.7650     7.9060    23.3370 H     1 Q101   0.1940 
 42 H5       7.7750     7.9400    26.2520 H     1 Q101   0.1560 
 43 H3       9.4150     6.8200    27.8790 H     1 Q101   0.1600 
 44 H26      3.9460    10.9080    15.2110 H     1 Q101   0.1600 
 45 H24      4.4590    14.4300    17.6360 H     1 Q101   0.1630 
 46 H21      4.7670    13.0300    19.6050 H     1 Q101   0.1530 
 47 H2      11.9580     6.5230    28.3110 H     1 Q101   0.1720 
 48 H12      5.7100     8.0700    21.2290 H     1 Q101   0.0910 
 49 H1       7.5180     9.8730    22.1120 H     1 Q101   0.4670 
@<TRIPOS>BOND
  1   1   2  am  
  2   1   9  1   
  3   1  49  1   
  4   2  21  2   
  5   2  29  1   
  6   2  30  2   
  7   3  11  1   
  8   3  12  1   
  9   3  19  am  
 10   4   7  1   
 11   4   8  1   
 12   4  18  am  
 13   5  19  2   
 14   6  18  2   
 15   7  38  1   
 16   7  39  1   
 17   7  40  1   
 18   8  35  1   
 19   8  36  1   
 20   8  37  1   
 21   9  10  1   
 22   9  19  1   
 23   9  48  1   
 24  10  11  1   
 25  10  33  1   
 26  10  34  1   
 27  11  31  1   
 28  11  32  1   
 29  12  13  ar  
 30  12  14  ar  
 31  13  15  ar  
 32  13  46  1   
 33  14  16  ar  
 34  14  20  1   
 35  15  17  ar  
 36  15  45  1   
 37  16  17  ar  
 38  16  44  1   
 39  17  18  1   
 40  22  23  1   
 41  23  24  2   
 42  23  25  1   
 43  24  26  1   
 44  24  47  1   
 45  25  27  1   
 46  26  27  2   
 47  26  43  1   
 48  27  28  1   
 49  28  29  2   
 50  28  42  1   
 51  29  41  1   
@<TRIPOS>SUBSTRUCTURE
  1 Q101  19 GROUP 4 **** **** 0

# MOE 2011.10 (io_trps.svl 2011.10)

@<TRIPOS>MOLECULE
FXA101_30
49 51 1 0 0 
SMALL
USER_CHARGES


@<TRIPOS>ATOM
  1 N1       6.4400     9.0960    22.3700 N.am  1 Q101  -0.8960 
  2 S1       6.7540     8.9230    23.9450 S.o2  1 Q101   1.3220 
  3 N2       4.9330     7.9230    19.5040 N.am  1 Q101  -0.3970 
  4 N3       2.8130     9.1580    13.5200 N.am  1 Q101  -0.4840 
  5 O3       7.1420     8.5740    19.6020 O.2   1 Q101  -0.6040 
  6 O4       4.9050     8.5180    13.1280 O.2   1 Q101  -0.6060 
  7 C7       2.8210    10.4870    12.8880 C.3   1 Q101   0.0840 
  8 C8       1.5230     8.4570    13.6310 C.3   1 Q101   0.0840 
  9 C12      5.9020     7.9820    21.6240 C.3   1 Q101   0.1690 
 10 C13      4.3880     7.8130    21.7820 C.3   1 Q101  -0.1080 
 11 C14      3.8900     7.4320    20.3920 C.3   1 Q101   0.1020 
 12 C15      4.7230     8.1080    18.1010 C.ar  1 Q101   0.0330 
 13 C21      4.3080     9.3290    17.5890 C.ar  1 Q101  -0.1060 
 14 C22      4.9020     7.0580    17.2120 C.ar  1 Q101   0.1210 
 15 C24      4.0890     9.5050    16.2380 C.ar  1 Q101  -0.0920 
 16 C26      4.6900     7.1960    15.8500 C.ar  1 Q101  -0.1400 
 17 C27      4.2850     8.4410    15.3700 C.ar  1 Q101  -0.1150 
 18 C28      4.0050     8.7140    13.9290 C.2   1 Q101   0.6760 
 19 C50      6.1030     8.2060    20.1300 C.2   1 Q101   0.6950 
 20 F1       5.2930     5.8700    17.7020 F     1 Q101  -0.1400 
 21 O1       5.8080     7.9450    24.3880 O.2   1 Q101  -0.5930 
 22 CL1     14.1480     7.5140    26.2940 Cl    1 Q101  -0.0550 
 23 C1      12.4210     7.4140    26.3520 C.2   1 Q101   0.0330 
 24 C2      11.6690     6.9300    27.3700 C.2   1 Q101  -0.1460 
 25 S2      11.5000     7.9750    25.0130 S.3   1 Q101   0.0240 
 26 C3      10.3060     7.0020    27.0700 C.2   1 Q101  -0.1130 
 27 C4      10.0310     7.5430    25.8200 C.2   1 Q101  -0.0920 
 28 C5       8.6780     7.7180    25.2780 C.2   1 Q101   0.0810 
 29 C6       8.3610     8.2830    24.1130 C.2   1 Q101  -0.4200 
 30 O2       6.7080    10.2760    24.4250 O.2   1 Q101  -0.5930 
 31 H142     2.9260     7.8930    20.1540 H     1 Q101   0.0600 
 32 H141     3.8180     6.3450    20.2820 H     1 Q101   0.0600 
 33 H132     4.1280     7.0670    22.5380 H     1 Q101   0.0720 
 34 H131     3.9310     8.7630    22.0860 H     1 Q101   0.0720 
 35 H83      0.9940     8.8270    14.5070 H     1 Q101   0.0490 
 36 H82      0.9380     8.6410    12.7260 H     1 Q101   0.0490 
 37 H81      1.7100     7.3900    13.7190 H     1 Q101   0.0490 
 38 H73      3.4080    10.4310    11.9680 H     1 Q101   0.0490 
 39 H72      1.8020    10.8140    12.6660 H     1 Q101   0.0490 
 40 H71      3.2990    11.2100    13.5580 H     1 Q101   0.0490 
 41 H6       9.0350     8.3810    23.2750 H     1 Q101   0.1940 
 42 H5       7.8990     7.2840    25.9030 H     1 Q101   0.1560 
 43 H3       9.5270     6.6810    27.7540 H     1 Q101   0.1600 
 44 H26      4.8480     6.3560    15.1860 H     1 Q101   0.1600 
 45 H24      3.7320    10.4580    15.8740 H     1 Q101   0.1630 
 46 H21      4.1360    10.1700    18.2580 H     1 Q101   0.1530 
 47 H2      12.0620     6.5440    28.3010 H     1 Q101   0.1720 
 48 H12      6.3910     7.0330    21.8710 H     1 Q101   0.0910 
 49 H1       7.0340     9.7520    21.8560 H     1 Q101   0.4670 
@<TRIPOS>BOND
  1   1   2  am  
  2   1   9  1   
  3   1  49  1   
  4   2  21  2   
  5   2  29  1   
  6   2  30  2   
  7   3  11  1   
  8   3  12  1   
  9   3  19  am  
 10   4   7  1   
 11   4   8  1   
 12   4  18  am  
 13   5  19  2   
 14   6  18  2   
 15   7  38  1   
 16   7  39  1   
 17   7  40  1   
 18   8  35  1   
 19   8  36  1   
 20   8  37  1   
 21   9  10  1   
 22   9  19  1   
 23   9  48  1   
 24  10  11  1   
 25  10  33  1   
 26  10  34  1   
 27  11  31  1   
 28  11  32  1   
 29  12  13  ar  
 30  12  14  ar  
 31  13  15  ar  
 32  13  46  1   
 33  14  16  ar  
 34  14  20  1   
 35  15  17  ar  
 36  15  45  1   
 37  16  17  ar  
 38  16  44  1   
 39  17  18  1   
 40  22  23  1   
 41  23  24  2   
 42  23  25  1   
 43  24  26  1   
 44  24  47  1   
 45  25  27  1   
 46  26  27  2   
 47  26  43  1   
 48  27  28  1   
 49  28  29  2   
 50  28  42  1   
 51  29  41  1   
@<TRIPOS>SUBSTRUCTURE
  1 Q101  19 GROUP 4 **** **** 0

# MOE 2011.10 (io_trps.svl 2011.10)

@<TRIPOS>MOLECULE
FXA101_31
49 51 1 0 0 
SMALL
USER_CHARGES


@<TRIPOS>ATOM
  1 N1       5.2000     9.7530    22.0230 N.am  1 Q101  -0.8960 
  2 S1       6.6960    10.3550    21.9470 S.o2  1 Q101   1.3220 
  3 N2       3.1470     6.9890    21.9080 N.am  1 Q101  -0.3970 
  4 N3      -2.5000     4.4370    23.7210 N.am  1 Q101  -0.4840 
  5 O3       2.6420     8.9890    20.8800 O.2   1 Q101  -0.6040 
  6 O4      -2.9210     4.9300    21.5950 O.2   1 Q101  -0.6060 
  7 C7      -1.6820     3.3230    24.2260 C.3   1 Q101   0.0840 
  8 C8      -3.6120     4.9100    24.5610 C.3   1 Q101   0.0840 
  9 C12      4.9370     8.4290    21.5080 C.3   1 Q101   0.1690 
 10 C13      5.4090     7.3050    22.4370 C.3   1 Q101  -0.1080 
 11 C14      4.3150     6.2460    22.3570 C.3   1 Q101   0.1020 
 12 C15      1.8160     6.4800    22.0400 C.ar  1 Q101   0.0330 
 13 C21      1.1370     6.5460    23.2480 C.ar  1 Q101  -0.1060 
 14 C22      1.1760     5.8800    20.9660 C.ar  1 Q101   0.1210 
 15 C24     -0.1410     6.0410    23.3820 C.ar  1 Q101  -0.0920 
 16 C26     -0.1050     5.3610    21.0620 C.ar  1 Q101  -0.1400 
 17 C27     -0.7620     5.4540    22.2890 C.ar  1 Q101  -0.1150 
 18 C28     -2.1350     4.9170    22.5280 C.2   1 Q101   0.6760 
 19 C50      3.4360     8.2040    21.3780 C.2   1 Q101   0.6950 
 20 F1       1.8320     5.8050    19.7960 F     1 Q101  -0.1400 
 21 O1       6.5070    11.7720    21.9550 O.2   1 Q101  -0.5930 
 22 CL1     11.2250     7.3970    27.7710 Cl    1 Q101  -0.0550 
 23 C1      10.8560     8.0470    26.2090 C.2   1 Q101   0.0330 
 24 C2      11.6860     8.1140    25.1400 C.2   1 Q101  -0.1460 
 25 S2       9.2880     8.6890    25.9140 S.3   1 Q101   0.0240 
 26 C3      11.0520     8.7050    24.0440 C.2   1 Q101  -0.1130 
 27 C4       9.7380     9.0850    24.2890 C.2   1 Q101  -0.0920 
 28 C5       8.8680     9.7280    23.2980 C.2   1 Q101   0.0810 
 29 C6       7.5470     9.8820    23.3870 C.2   1 Q101  -0.4200 
 30 O2       7.2470     9.6820    20.8040 O.2   1 Q101  -0.5930 
 31 H142     4.1260     5.7700    23.3240 H     1 Q101   0.0600 
 32 H141     4.5550     5.4840    21.6090 H     1 Q101   0.0600 
 33 H132     6.3910     6.9140    22.1530 H     1 Q101   0.0720 
 34 H131     5.4880     7.6740    23.4670 H     1 Q101   0.0720 
 35 H83     -4.4740     4.2650    24.4030 H     1 Q101   0.0490 
 36 H82     -3.3030     4.8840    25.6100 H     1 Q101   0.0490 
 37 H81     -3.8470     5.9350    24.2880 H     1 Q101   0.0490 
 38 H73     -0.6640     3.6870    24.3920 H     1 Q101   0.0490 
 39 H72     -2.0990     2.9300    25.1570 H     1 Q101   0.0490 
 40 H71     -1.6450     2.5240    23.4770 H     1 Q101   0.0490 
 41 H6       6.9700     9.7220    24.2870 H     1 Q101   0.1940 
 42 H5       9.4090    10.1450    22.4490 H     1 Q101   0.1560 
 43 H3      11.5320     8.8420    23.0800 H     1 Q101   0.1600 
 44 H26     -0.5760     4.9070    20.2000 H     1 Q101   0.1600 
 45 H24     -0.6310     6.0740    24.3460 H     1 Q101   0.1630 
 46 H21      1.6140     6.9890    24.1190 H     1 Q101   0.1530 
 47 H2      12.7050     7.7520    25.1240 H     1 Q101   0.1720 
 48 H12      5.3690     8.2690    20.5130 H     1 Q101   0.0910 
 49 H1       4.4320    10.4280    21.9700 H     1 Q101   0.4670 
@<TRIPOS>BOND
  1   1   2  am  
  2   1   9  1   
  3   1  49  1   
  4   2  21  2   
  5   2  29  1   
  6   2  30  2   
  7   3  11  1   
  8   3  12  1   
  9   3  19  am  
 10   4   7  1   
 11   4   8  1   
 12   4  18  am  
 13   5  19  2   
 14   6  18  2   
 15   7  38  1   
 16   7  39  1   
 17   7  40  1   
 18   8  35  1   
 19   8  36  1   
 20   8  37  1   
 21   9  10  1   
 22   9  19  1   
 23   9  48  1   
 24  10  11  1   
 25  10  33  1   
 26  10  34  1   
 27  11  31  1   
 28  11  32  1   
 29  12  13  ar  
 30  12  14  ar  
 31  13  15  ar  
 32  13  46  1   
 33  14  16  ar  
 34  14  20  1   
 35  15  17  ar  
 36  15  45  1   
 37  16  17  ar  
 38  16  44  1   
 39  17  18  1   
 40  22  23  1   
 41  23  24  2   
 42  23  25  1   
 43  24  26  1   
 44  24  47  1   
 45  25  27  1   
 46  26  27  2   
 47  26  43  1   
 48  27  28  1   
 49  28  29  2   
 50  28  42  1   
 51  29  41  1   
@<TRIPOS>SUBSTRUCTURE
  1 Q101  11 GROUP 4 **** **** 0

# MOE 2011.10 (io_trps.svl 2011.10)

@<TRIPOS>MOLECULE
FXA101_32
49 51 1 0 0 
SMALL
USER_CHARGES


@<TRIPOS>ATOM
  1 N1       4.3520    11.6240    19.0220 N.am  1 Q101  -0.8960 
  2 S1       4.7520    10.2930    18.1990 S.o2  1 Q101   1.3220 
  3 N2       3.1310    14.8260    18.6680 N.am  1 Q101  -0.3970 
  4 N3       3.8330    21.2940    19.2420 N.am  1 Q101  -0.4840 
  5 O3       4.9900    14.0460    17.5530 O.2   1 Q101  -0.6040 
  6 O4       5.0620    20.7480    17.4730 O.2   1 Q101  -0.6060 
  7 C7       2.5070    21.8190    18.8790 C.3   1 Q101   0.0840 
  8 C8       4.4540    21.7910    20.4810 C.3   1 Q101   0.0840 
  9 C12      3.3390    12.5090    18.4950 C.3   1 Q101   0.1690 
 10 C13      2.2230    12.8280    19.4960 C.3   1 Q101  -0.1080 
 11 C14      1.9180    14.3070    19.2830 C.3   1 Q101   0.1020 
 12 C15      3.4330    16.2240    18.6260 C.ar  1 Q101   0.0330 
 13 C21      2.8600    17.0560    17.6750 C.ar  1 Q101  -0.1060 
 14 C22      4.3330    16.7820    19.5220 C.ar  1 Q101   0.1210 
 15 C24      3.1630    18.4020    17.6230 C.ar  1 Q101  -0.0920 
 16 C26      4.6620    18.1280    19.4990 C.ar  1 Q101  -0.1400 
 17 C27      4.0580    18.9370    18.5360 C.ar  1 Q101  -0.1150 
 18 C28      4.3430    20.3960    18.3940 C.2   1 Q101   0.6760 
 19 C50      3.9480    13.8670    18.1650 C.2   1 Q101   0.6950 
 20 F1       4.8980    15.9800    20.4390 F     1 Q101  -0.1400 
 21 O1       4.3950    10.5940    16.8470 O.2   1 Q101  -0.5930 
 22 CL1      9.0120     8.2700    24.1290 Cl    1 Q101  -0.0550 
 23 C1       8.1540     8.8150    22.7270 C.2   1 Q101   0.0330 
 24 C2       7.2520     9.8240    22.6680 C.2   1 Q101  -0.1460 
 25 S2       8.4330     8.0420    21.2170 S.3   1 Q101   0.0240 
 26 C3       6.7570     9.9840    21.3710 C.2   1 Q101  -0.1130 
 27 C4       7.2900     9.0910    20.4490 C.2   1 Q101  -0.0920 
 28 C5       6.9250     9.0590    19.0280 C.2   1 Q101   0.0810 
 29 C6       6.4740    10.0840    18.3050 C.2   1 Q101  -0.4200 
 30 O2       4.0820     9.2570    18.9340 O.2   1 Q101  -0.5930 
 31 H142     1.7040    14.8260    20.2230 H     1 Q101   0.0600 
 32 H141     1.0850    14.4440    18.5860 H     1 Q101   0.0600 
 33 H132     1.3420    12.1950    19.3540 H     1 Q101   0.0720 
 34 H131     2.5790    12.6710    20.5210 H     1 Q101   0.0720 
 35 H83      4.9370    22.7440    20.2770 H     1 Q101   0.0490 
 36 H82      3.6800    21.9110    21.2450 H     1 Q101   0.0490 
 37 H81      5.1800    21.0600    20.8280 H     1 Q101   0.0490 
 38 H73      1.7880    20.9960    18.9070 H     1 Q101   0.0490 
 39 H72      2.2040    22.6100    19.5700 H     1 Q101   0.0490 
 40 H71      2.5360    22.2160    17.8590 H     1 Q101   0.0490 
 41 H6       7.1030    10.7990    17.7940 H     1 Q101   0.1940 
 42 H5       7.1060     8.0960    18.5530 H     1 Q101   0.1560 
 43 H3       6.0340    10.7460    21.0980 H     1 Q101   0.1600 
 44 H26      5.3630    18.5300    20.2190 H     1 Q101   0.1600 
 45 H24      2.7280    19.0180    16.8480 H     1 Q101   0.1630 
 46 H21      2.1670    16.6500    16.9420 H     1 Q101   0.1530 
 47 H2       6.9530    10.4360    23.5070 H     1 Q101   0.1720 
 48 H12      2.8870    12.1320    17.5700 H     1 Q101   0.0910 
 49 H1       5.0910    12.0530    19.5840 H     1 Q101   0.4670 
@<TRIPOS>BOND
  1   1   2  am  
  2   1   9  1   
  3   1  49  1   
  4   2  21  2   
  5   2  29  1   
  6   2  30  2   
  7   3  11  1   
  8   3  12  1   
  9   3  19  am  
 10   4   7  1   
 11   4   8  1   
 12   4  18  am  
 13   5  19  2   
 14   6  18  2   
 15   7  38  1   
 16   7  39  1   
 17   7  40  1   
 18   8  35  1   
 19   8  36  1   
 20   8  37  1   
 21   9  10  1   
 22   9  19  1   
 23   9  48  1   
 24  10  11  1   
 25  10  33  1   
 26  10  34  1   
 27  11  31  1   
 28  11  32  1   
 29  12  13  ar  
 30  12  14  ar  
 31  13  15  ar  
 32  13  46  1   
 33  14  16  ar  
 34  14  20  1   
 35  15  17  ar  
 36  15  45  1   
 37  16  17  ar  
 38  16  44  1   
 39  17  18  1   
 40  22  23  1   
 41  23  24  2   
 42  23  25  1   
 43  24  26  1   
 44  24  47  1   
 45  25  27  1   
 46  26  27  2   
 47  26  43  1   
 48  27  28  1   
 49  28  29  2   
 50  28  42  1   
 51  29  41  1   
@<TRIPOS>SUBSTRUCTURE
  1 Q101  19 GROUP 4 **** **** 0

# MOE 2011.10 (io_trps.svl 2011.10)

@<TRIPOS>MOLECULE
FXA101_33
49 51 1 0 0 
SMALL
USER_CHARGES


@<TRIPOS>ATOM
  1 N1       4.6640     7.5780    22.3930 N.am  1 Q101  -0.8960 
  2 S1       5.4080     8.9590    22.7780 S.o2  1 Q101   1.3220 
  3 N2       1.6000     6.0670    21.9560 N.am  1 Q101  -0.3970 
  4 N3      -1.8540     1.0650    24.1640 N.am  1 Q101  -0.4840 
  5 O3       2.2750     7.0180    23.9430 O.2   1 Q101  -0.6040 
  6 O4      -3.2860     2.7450    24.4290 O.2   1 Q101  -0.6060 
  7 C7      -2.9040     0.1840    24.6980 C.3   1 Q101   0.0840 
  8 C8      -0.5620     0.4570    23.8050 C.3   1 Q101   0.0840 
  9 C12      3.3370     7.6180    21.8250 C.3   1 Q101   0.1690 
 10 C13      3.2230     6.8940    20.4790 C.3   1 Q101  -0.1080 
 11 C14      1.8770     6.1810    20.5310 C.3   1 Q101   0.1020 
 12 C15      0.6300     5.1540    22.4790 C.ar  1 Q101   0.0330 
 13 C21      0.9200     4.3390    23.5630 C.ar  1 Q101  -0.1060 
 14 C22     -0.6230     5.0400    21.8950 C.ar  1 Q101   0.1210 
 15 C24     -0.0090     3.4460    24.0590 C.ar  1 Q101  -0.0920 
 16 C26     -1.5810     4.1550    22.3640 C.ar  1 Q101  -0.1400 
 17 C27     -1.2590     3.3580    23.4630 C.ar  1 Q101  -0.1150 
 18 C28     -2.1930     2.3530    24.0510 C.2   1 Q101   0.6760 
 19 C50      2.3560     6.8840    22.7310 C.2   1 Q101   0.6950 
 20 F1      -0.9060     5.8190    20.8390 F     1 Q101  -0.1400 
 21 O1       4.3770     9.7640    23.3570 O.2   1 Q101  -0.5930 
 22 CL1     11.5340     6.9330    27.4180 Cl    1 Q101  -0.0550 
 23 C1      10.7360     7.6650    26.0670 C.2   1 Q101   0.0330 
 24 C2      11.3170     8.3530    25.0550 C.2   1 Q101  -0.1460 
 25 S2       9.0260     7.5390    25.9310 S.3   1 Q101   0.0240 
 26 C3      10.3640     8.8040    24.1380 C.2   1 Q101  -0.1130 
 27 C4       9.0580     8.4540    24.4620 C.2   1 Q101  -0.0920 
 28 C5       7.8860     8.8150    23.6570 C.2   1 Q101   0.0810 
 29 C6       6.6100     8.6120    23.9850 C.2   1 Q101  -0.4200 
 30 O2       6.0400     9.3300    21.5430 O.2   1 Q101  -0.5930 
 31 H142     1.9110     5.1930    20.0610 H     1 Q101   0.0600 
 32 H141     1.0900     6.7850    20.0680 H     1 Q101   0.0600 
 33 H132     3.3010     7.5790    19.6300 H     1 Q101   0.0720 
 34 H131     4.0270     6.1540    20.3790 H     1 Q101   0.0720 
 35 H83      0.0420     0.3560    24.7040 H     1 Q101   0.0490 
 36 H82     -0.7420    -0.5230    23.3540 H     1 Q101   0.0490 
 37 H81     -0.0640     1.0940    23.0790 H     1 Q101   0.0490 
 38 H73     -3.7400     0.1730    23.9920 H     1 Q101   0.0490 
 39 H72     -2.5200    -0.8290    24.8430 H     1 Q101   0.0490 
 40 H71     -3.2650     0.5790    25.6530 H     1 Q101   0.0490 
 41 H6       6.2740     8.2360    24.9400 H     1 Q101   0.1940 
 42 H5       8.1340     9.3410    22.7360 H     1 Q101   0.1560 
 43 H3      10.6160     9.3640    23.2430 H     1 Q101   0.1600 
 44 H26     -2.5510     4.0980    21.8880 H     1 Q101   0.1600 
 45 H24      0.2580     2.7980    24.8830 H     1 Q101   0.1630 
 46 H21      1.8990     4.3850    24.0330 H     1 Q101   0.1530 
 47 H2      12.3790     8.5280    24.9560 H     1 Q101   0.1720 
 48 H12      2.9570     8.6400    21.7100 H     1 Q101   0.0910 
 49 H1       4.8980     6.7590    22.9600 H     1 Q101   0.4670 
@<TRIPOS>BOND
  1   1   2  am  
  2   1   9  1   
  3   1  49  1   
  4   2  21  2   
  5   2  29  1   
  6   2  30  2   
  7   3  11  1   
  8   3  12  1   
  9   3  19  am  
 10   4   7  1   
 11   4   8  1   
 12   4  18  am  
 13   5  19  2   
 14   6  18  2   
 15   7  38  1   
 16   7  39  1   
 17   7  40  1   
 18   8  35  1   
 19   8  36  1   
 20   8  37  1   
 21   9  10  1   
 22   9  19  1   
 23   9  48  1   
 24  10  11  1   
 25  10  33  1   
 26  10  34  1   
 27  11  31  1   
 28  11  32  1   
 29  12  13  ar  
 30  12  14  ar  
 31  13  15  ar  
 32  13  46  1   
 33  14  16  ar  
 34  14  20  1   
 35  15  17  ar  
 36  15  45  1   
 37  16  17  ar  
 38  16  44  1   
 39  17  18  1   
 40  22  23  1   
 41  23  24  2   
 42  23  25  1   
 43  24  26  1   
 44  24  47  1   
 45  25  27  1   
 46  26  27  2   
 47  26  43  1   
 48  27  28  1   
 49  28  29  2   
 50  28  42  1   
 51  29  41  1   
@<TRIPOS>SUBSTRUCTURE
  1 Q101  19 GROUP 4 **** **** 0

# MOE 2011.10 (io_trps.svl 2011.10)

@<TRIPOS>MOLECULE
FXA101_34
49 51 1 0 0 
SMALL
USER_CHARGES


@<TRIPOS>ATOM
  1 N1       7.4350     8.8780    22.3120 N.am  1 Q101  -0.8960 
  2 S1       7.6440     9.3350    23.8470 S.o2  1 Q101   1.3220 
  3 N2       6.2390     6.5180    20.1070 N.am  1 Q101  -0.3970 
  4 N3       4.0450     4.4550    14.3720 N.am  1 Q101  -0.4840 
  5 O3       8.2390     7.6270    19.8190 O.2   1 Q101  -0.6040 
  6 O4       5.9080     5.5220    13.7990 O.2   1 Q101  -0.6060 
  7 C7       3.6170     3.4730    15.3810 C.3   1 Q101   0.0840 
  8 C8       3.2280     4.5920    13.1550 C.3   1 Q101   0.0840 
  9 C12      7.1680     7.4910    22.0120 C.3   1 Q101   0.1690 
 10 C13      5.7330     7.0600    22.3310 C.3   1 Q101  -0.1080 
 11 C14      5.3360     6.1380    21.1840 C.3   1 Q101   0.1020 
 12 C15      5.9920     6.1730    18.7400 C.ar  1 Q101   0.0330 
 13 C21      4.9530     6.7540    18.0270 C.ar  1 Q101  -0.1060 
 14 C22      6.7720     5.2240    18.0960 C.ar  1 Q101   0.1210 
 15 C24      4.7040     6.4110    16.7140 C.ar  1 Q101  -0.0920 
 16 C26      6.5510     4.8530    16.7800 C.ar  1 Q101  -0.1400 
 17 C27      5.5050     5.4660    16.0900 C.ar  1 Q101  -0.1150 
 18 C28      5.1510     5.1400    14.6760 C.2   1 Q101   0.6760 
 19 C50      7.3120     7.2400    20.5160 C.2   1 Q101   0.6950 
 20 F1       7.7740     4.6510    18.7840 F     1 Q101  -0.1400 
 21 O1       6.4360    10.0260    24.1770 O.2   1 Q101  -0.5930 
 22 CL1     13.9360     7.3050    27.1650 Cl    1 Q101  -0.0550 
 23 C1      12.4060     7.5610    26.3940 C.2   1 Q101   0.0330 
 24 C2      12.1900     7.8040    25.0790 C.2   1 Q101  -0.1460 
 25 S2      10.9700     7.5110    27.3380 S.3   1 Q101   0.0240 
 26 C3      10.8280     7.9640    24.8120 C.2   1 Q101  -0.1130 
 27 C4      10.0150     7.8400    25.9320 C.2   1 Q101  -0.0920 
 28 C5       8.5530     7.9700    25.9070 C.2   1 Q101   0.0810 
 29 C6       7.7730     7.9060    24.8280 C.2   1 Q101  -0.4200 
 30 O2       8.9060    10.0190    23.8020 O.2   1 Q101  -0.5930 
 31 H142     4.2930     6.2730    20.8830 H     1 Q101   0.0600 
 32 H141     5.5160     5.0880    21.4380 H     1 Q101   0.0600 
 33 H132     5.6510     6.5720    23.3070 H     1 Q101   0.0720 
 34 H131     5.0700     7.9340    22.3450 H     1 Q101   0.0720 
 35 H83      3.5100     3.8120    12.4500 H     1 Q101   0.0490 
 36 H82      2.1720     4.5000    13.4220 H     1 Q101   0.0490 
 37 H81      3.3990     5.5750    12.7260 H     1 Q101   0.0490 
 38 H73      3.3490     4.0090    16.2950 H     1 Q101   0.0490 
 39 H72      2.7640     2.8950    15.0170 H     1 Q101   0.0490 
 40 H71      4.4470     2.7960    15.6100 H     1 Q101   0.0490 
 41 H6       7.2290     7.0270    24.5160 H     1 Q101   0.1940 
 42 H5       8.1080     8.0780    26.8950 H     1 Q101   0.1560 
 43 H3      10.4330     8.1510    23.8180 H     1 Q101   0.1600 
 44 H26      7.1850     4.1140    16.3080 H     1 Q101   0.1600 
 45 H24      3.8640     6.8540    16.1960 H     1 Q101   0.1630 
 46 H21      4.3070     7.4860    18.5060 H     1 Q101   0.1530 
 47 H2      12.9640     7.8610    24.3250 H     1 Q101   0.1720 
 48 H12      7.8620     6.8080    22.5160 H     1 Q101   0.0910 
 49 H1       7.9430     9.4140    21.6030 H     1 Q101   0.4670 
@<TRIPOS>BOND
  1   1   2  am  
  2   1   9  1   
  3   1  49  1   
  4   2  21  2   
  5   2  29  1   
  6   2  30  2   
  7   3  11  1   
  8   3  12  1   
  9   3  19  am  
 10   4   7  1   
 11   4   8  1   
 12   4  18  am  
 13   5  19  2   
 14   6  18  2   
 15   7  38  1   
 16   7  39  1   
 17   7  40  1   
 18   8  35  1   
 19   8  36  1   
 20   8  37  1   
 21   9  10  1   
 22   9  19  1   
 23   9  48  1   
 24  10  11  1   
 25  10  33  1   
 26  10  34  1   
 27  11  31  1   
 28  11  32  1   
 29  12  13  ar  
 30  12  14  ar  
 31  13  15  ar  
 32  13  46  1   
 33  14  16  ar  
 34  14  20  1   
 35  15  17  ar  
 36  15  45  1   
 37  16  17  ar  
 38  16  44  1   
 39  17  18  1   
 40  22  23  1   
 41  23  24  2   
 42  23  25  1   
 43  24  26  1   
 44  24  47  1   
 45  25  27  1   
 46  26  27  2   
 47  26  43  1   
 48  27  28  1   
 49  28  29  2   
 50  28  42  1   
 51  29  41  1   
@<TRIPOS>SUBSTRUCTURE
  1 Q101  19 GROUP 4 **** **** 0

# MOE 2011.10 (io_trps.svl 2011.10)

@<TRIPOS>MOLECULE
FXA101_35
49 51 1 0 0 
SMALL
USER_CHARGES


@<TRIPOS>ATOM
  1 N1       5.5570     7.9820    21.8870 N.am  1 Q101  -0.8960 
  2 S1       6.8780     8.6520    22.5300 S.o2  1 Q101   1.3220 
  3 N2       3.2280     8.0070    19.3480 N.am  1 Q101  -0.3970 
  4 N3      -2.9440     9.7010    18.4720 N.am  1 Q101  -0.4840 
  5 O3       3.3080     9.5980    21.0140 O.2   1 Q101  -0.6040 
  6 O4      -2.8170     7.8700    17.2190 O.2   1 Q101  -0.6060 
  7 C7      -4.0370    10.2040    17.6260 C.3   1 Q101   0.0840 
  8 C8      -2.7040    10.3760    19.7590 C.3   1 Q101   0.0840 
  9 C12      5.2500     8.2080    20.4940 C.3   1 Q101   0.1690 
 10 C13      5.2930     6.9340    19.6430 C.3   1 Q101  -0.1080 
 11 C14      4.1170     7.0660    18.6820 C.3   1 Q101   0.1020 
 12 C15      1.8510     8.1480    18.9900 C.ar  1 Q101   0.0330 
 13 C21      1.3150     9.3850    18.6610 C.ar  1 Q101  -0.1060 
 14 C22      1.0020     7.0500    18.9870 C.ar  1 Q101   0.1210 
 15 C24     -0.0170     9.5260    18.3310 C.ar  1 Q101  -0.0920 
 16 C26     -0.3410     7.1530    18.6620 C.ar  1 Q101  -0.1400 
 17 C27     -0.8420     8.4110    18.3260 C.ar  1 Q101  -0.1150 
 18 C28     -2.2730     8.6570    17.9770 C.2   1 Q101   0.6760 
 19 C50      3.8200     8.7120    20.3450 C.2   1 Q101   0.6950 
 20 F1       1.5130     5.8520    19.3140 F     1 Q101  -0.1400 
 21 O1       6.9400     9.9520    21.9360 O.2   1 Q101  -0.5930 
 22 CL1     12.8350     7.5920    26.2090 Cl    1 Q101  -0.0550 
 23 C1      11.2840     8.0070    25.5600 C.2   1 Q101   0.0330 
 24 C2      11.0340     8.8650    24.5410 C.2   1 Q101  -0.1460 
 25 S2       9.8730     7.2900    26.2300 S.3   1 Q101   0.0240 
 26 C3       9.6630     8.9600    24.2880 C.2   1 Q101  -0.1130 
 27 C4       8.8780     8.1700    25.1190 C.2   1 Q101  -0.0920 
 28 C5       7.4140     8.1020    25.0490 C.2   1 Q101   0.0810 
 29 C6       6.6280     8.8150    24.2430 C.2   1 Q101  -0.4200 
 30 O2       7.8880     7.6640    22.2710 O.2   1 Q101  -0.5930 
 31 H142     3.6130     6.1100    18.5080 H     1 Q101   0.0600 
 32 H141     4.4320     7.4980    17.7260 H     1 Q101   0.0600 
 33 H132     6.2470     6.8120    19.1220 H     1 Q101   0.0720 
 34 H131     5.1500     6.0510    20.2780 H     1 Q101   0.0720 
 35 H83     -2.1000    11.2640    19.5850 H     1 Q101   0.0490 
 36 H82     -3.6650    10.6480    20.2040 H     1 Q101   0.0490 
 37 H81     -2.1890     9.6880    20.4250 H     1 Q101   0.0490 
 38 H73     -4.7970     9.4230    17.5400 H     1 Q101   0.0490 
 39 H72     -4.4730    11.1090    18.0580 H     1 Q101   0.0490 
 40 H71     -3.6550    10.4250    16.6240 H     1 Q101   0.0490 
 41 H6       5.8410     9.4740    24.5790 H     1 Q101   0.1940 
 42 H5       6.9810     7.3460    25.7030 H     1 Q101   0.1560 
 43 H3       9.2440     9.5800    23.5010 H     1 Q101   0.1600 
 44 H26     -0.9700     6.2730    18.6640 H     1 Q101   0.1600 
 45 H24     -0.4140    10.5080    18.1140 H     1 Q101   0.1630 
 46 H21      1.9440    10.2720    18.6740 H     1 Q101   0.1530 
 47 H2      11.7890     9.4030    23.9860 H     1 Q101   0.1720 
 48 H12      5.9010     8.9610    20.0340 H     1 Q101   0.0910 
 49 H1       4.7620     7.8440    22.5170 H     1 Q101   0.4670 
@<TRIPOS>BOND
  1   1   2  am  
  2   1   9  1   
  3   1  49  1   
  4   2  21  2   
  5   2  29  1   
  6   2  30  2   
  7   3  11  1   
  8   3  12  1   
  9   3  19  am  
 10   4   7  1   
 11   4   8  1   
 12   4  18  am  
 13   5  19  2   
 14   6  18  2   
 15   7  38  1   
 16   7  39  1   
 17   7  40  1   
 18   8  35  1   
 19   8  36  1   
 20   8  37  1   
 21   9  10  1   
 22   9  19  1   
 23   9  48  1   
 24  10  11  1   
 25  10  33  1   
 26  10  34  1   
 27  11  31  1   
 28  11  32  1   
 29  12  13  ar  
 30  12  14  ar  
 31  13  15  ar  
 32  13  46  1   
 33  14  16  ar  
 34  14  20  1   
 35  15  17  ar  
 36  15  45  1   
 37  16  17  ar  
 38  16  44  1   
 39  17  18  1   
 40  22  23  1   
 41  23  24  2   
 42  23  25  1   
 43  24  26  1   
 44  24  47  1   
 45  25  27  1   
 46  26  27  2   
 47  26  43  1   
 48  27  28  1   
 49  28  29  2   
 50  28  42  1   
 51  29  41  1   
@<TRIPOS>SUBSTRUCTURE
  1 Q101  19 GROUP 4 **** **** 0

# MOE 2011.10 (io_trps.svl 2011.10)

@<TRIPOS>MOLECULE
FXA101_36
49 51 1 0 0 
SMALL
USER_CHARGES


@<TRIPOS>ATOM
  1 N1       3.8120    14.2680    18.0280 N.am  1 Q101  -0.8960 
  2 S1       3.9060    13.3520    19.3550 S.o2  1 Q101   1.3220 
  3 N2       2.7650    17.1300    16.4230 N.am  1 Q101  -0.3970 
  4 N3       2.1700    20.6610    10.9700 N.am  1 Q101  -0.4840 
  5 O3       1.9330    15.0340    15.9520 O.2   1 Q101  -0.6040 
  6 O4       0.4640    19.2390    10.8940 O.2   1 Q101  -0.6060 
  7 C7       3.6320    20.5130    11.0520 C.3   1 Q101   0.0840 
  8 C8       1.6360    21.8880    10.3570 C.3   1 Q101   0.0840 
  9 C12      3.0650    15.5030    18.0670 C.3   1 Q101   0.1690 
 10 C13      3.9180    16.7250    18.4250 C.3   1 Q101  -0.1080 
 11 C14      3.4010    17.8400    17.5230 C.3   1 Q101   0.1020 
 12 C15      2.4650    17.7600    15.1740 C.ar  1 Q101   0.0330 
 13 C21      1.5380    18.7890    15.0910 C.ar  1 Q101  -0.1060 
 14 C22      3.0760    17.3380    14.0020 C.ar  1 Q101   0.1210 
 15 C24      1.2350    19.3860    13.8840 C.ar  1 Q101  -0.0920 
 16 C26      2.7960    17.9130    12.7730 C.ar  1 Q101  -0.1400 
 17 C27      1.8670    18.9520    12.7280 C.ar  1 Q101  -0.1150 
 18 C28      1.4650    19.6400    11.4660 C.2   1 Q101   0.6760 
 19 C50      2.5080    15.8240    16.6850 C.2   1 Q101   0.6950 
 20 F1       3.9670    16.3360    14.0750 F     1 Q101  -0.1400 
 21 O1       2.5770    13.3600    19.8840 O.2   1 Q101  -0.5930 
 22 CL1      5.0180     8.8400    24.7670 Cl    1 Q101  -0.0550 
 23 C1       4.6620     9.4280    23.1780 C.2   1 Q101   0.0330 
 24 C2       3.4660     9.3840    22.5440 C.2   1 Q101  -0.1460 
 25 S2       5.9140    10.1600    22.2530 S.3   1 Q101   0.0240 
 26 C3       3.5490     9.9500    21.2680 C.2   1 Q101  -0.1130 
 27 C4       4.8140    10.4210    20.9410 C.2   1 Q101  -0.0920 
 28 C5       5.1520    11.0520    19.6600 C.2   1 Q101   0.0810 
 29 C6       4.3210    11.7340    18.8720 C.2   1 Q101  -0.4200 
 30 O2       4.9980    13.9490    20.0720 O.2   1 Q101  -0.5930 
 31 H142     4.2060    18.4860    17.1570 H     1 Q101   0.0600 
 32 H141     2.6440    18.4450    18.0350 H     1 Q101   0.0600 
 33 H132     3.8540    16.9820    19.4860 H     1 Q101   0.0720 
 34 H131     4.9730    16.5290    18.1970 H     1 Q101   0.0720 
 35 H83      1.6300    22.6820    11.1010 H     1 Q101   0.0490 
 36 H82      2.2670    22.1670     9.5080 H     1 Q101   0.0490 
 37 H81      0.6290    21.6920     9.9980 H     1 Q101   0.0490 
 38 H73      3.9300    19.6640    10.4310 H     1 Q101   0.0490 
 39 H72      4.1300    21.4240    10.7110 H     1 Q101   0.0490 
 40 H71      3.9230    20.3020    12.0860 H     1 Q101   0.0490 
 41 H6       3.9000    11.3570    17.9520 H     1 Q101   0.1940 
 42 H5       6.2060    10.9680    19.3970 H     1 Q101   0.1560 
 43 H3       2.7000    10.0310    20.5960 H     1 Q101   0.1600 
 44 H26      3.2980    17.5620    11.8810 H     1 Q101   0.1600 
 45 H24      0.4820    20.1620    13.8450 H     1 Q101   0.1630 
 46 H21      1.0220    19.1320    15.9850 H     1 Q101   0.1530 
 47 H2       2.5570     8.9750    22.9640 H     1 Q101   0.1720 
 48 H12      2.2080    15.4580    18.7500 H     1 Q101   0.0910 
 49 H1       3.8440    13.7770    17.1310 H     1 Q101   0.4670 
@<TRIPOS>BOND
  1   1   2  am  
  2   1   9  1   
  3   1  49  1   
  4   2  21  2   
  5   2  29  1   
  6   2  30  2   
  7   3  11  1   
  8   3  12  1   
  9   3  19  am  
 10   4   7  1   
 11   4   8  1   
 12   4  18  am  
 13   5  19  2   
 14   6  18  2   
 15   7  38  1   
 16   7  39  1   
 17   7  40  1   
 18   8  35  1   
 19   8  36  1   
 20   8  37  1   
 21   9  10  1   
 22   9  19  1   
 23   9  48  1   
 24  10  11  1   
 25  10  33  1   
 26  10  34  1   
 27  11  31  1   
 28  11  32  1   
 29  12  13  ar  
 30  12  14  ar  
 31  13  15  ar  
 32  13  46  1   
 33  14  16  ar  
 34  14  20  1   
 35  15  17  ar  
 36  15  45  1   
 37  16  17  ar  
 38  16  44  1   
 39  17  18  1   
 40  22  23  1   
 41  23  24  2   
 42  23  25  1   
 43  24  26  1   
 44  24  47  1   
 45  25  27  1   
 46  26  27  2   
 47  26  43  1   
 48  27  28  1   
 49  28  29  2   
 50  28  42  1   
 51  29  41  1   
@<TRIPOS>SUBSTRUCTURE
  1 Q101  19 GROUP 4 **** **** 0

# MOE 2011.10 (io_trps.svl 2011.10)

@<TRIPOS>MOLECULE
FXA101_37
49 51 1 0 0 
SMALL
USER_CHARGES


@<TRIPOS>ATOM
  1 N1       5.3790    10.4240    15.9100 N.am  1 Q101  -0.8960 
  2 S1       4.3430    11.1450    14.9010 S.o2  1 Q101   1.3220 
  3 N2       5.9800     9.2600    19.0960 N.am  1 Q101  -0.3970 
  4 N3       9.3430     8.7780    24.6640 N.am  1 Q101  -0.4840 
  5 O3       5.8390    11.4990    18.5670 O.2   1 Q101  -0.6040 
  6 O4       9.4650    10.9330    24.1340 O.2   1 Q101  -0.6060 
  7 C7       8.2000     7.8910    24.9350 C.3   1 Q101   0.0840 
  8 C8      10.6320     8.4490    25.2940 C.3   1 Q101   0.0840 
  9 C12      4.8810     9.7880    17.1070 C.3   1 Q101   0.1690 
 10 C13      5.1270     8.2760    17.1460 C.3   1 Q101  -0.1080 
 11 C14      5.5100     7.9780    18.5910 C.3   1 Q101   0.1020 
 12 C15      6.7720     9.3750    20.2820 C.ar  1 Q101   0.0330 
 13 C21      6.2050     9.7460    21.4930 C.ar  1 Q101  -0.1060 
 14 C22      8.1390     9.1440    20.2470 C.ar  1 Q101   0.1210 
 15 C24      6.9700     9.8730    22.6350 C.ar  1 Q101  -0.0920 
 16 C26      8.9390     9.2620    21.3720 C.ar  1 Q101  -0.1400 
 17 C27      8.3340     9.6260    22.5750 C.ar  1 Q101  -0.1150 
 18 C28      9.0870     9.8070    23.8520 C.2   1 Q101   0.6760 
 19 C50      5.6190    10.3200    18.3300 C.2   1 Q101   0.6950 
 20 F1       8.6950     8.7940    19.0760 F     1 Q101  -0.1400 
 21 O1       3.4130    10.1140    14.5560 O.2   1 Q101  -0.5930 
 22 CL1      3.0350    18.6530    17.9040 Cl    1 Q101  -0.0550 
 23 C1       3.0030    16.9880    17.4290 C.2   1 Q101   0.0330 
 24 C2       2.0470    16.0770    17.7270 C.2   1 Q101  -0.1460 
 25 S2       4.2880    16.3620    16.4730 S.3   1 Q101   0.0240 
 26 C3       2.3510    14.8280    17.1790 C.2   1 Q101  -0.1130 
 27 C4       3.5430    14.8000    16.4650 C.2   1 Q101  -0.0920 
 28 C5       4.0770    13.6050    15.8000 C.2   1 Q101   0.0810 
 29 C6       3.5140    12.3970    15.7760 C.2   1 Q101  -0.4200 
 30 O2       5.2150    11.7230    13.9170 O.2   1 Q101  -0.5930 
 31 H142     6.2950     7.2190    18.6650 H     1 Q101   0.0600 
 32 H141     4.6380     7.6690    19.1760 H     1 Q101   0.0600 
 33 H132     4.2540     7.7040    16.8180 H     1 Q101   0.0720 
 34 H131     5.9610     8.0120    16.4840 H     1 Q101   0.0720 
 35 H83     10.6360     8.8300    26.3130 H     1 Q101   0.0490 
 36 H82     10.7640     7.3640    25.2930 H     1 Q101   0.0490 
 37 H81     11.4320     8.9020    24.7140 H     1 Q101   0.0490 
 38 H73      7.9010     7.4150    23.9970 H     1 Q101   0.0490 
 39 H72      8.4680     7.1330    25.6750 H     1 Q101   0.0490 
 40 H71      7.3560     8.4820    25.3060 H     1 Q101   0.0490 
 41 H6       2.5880    12.1410    16.2710 H     1 Q101   0.1940 
 42 H5       4.9970    13.7880    15.2480 H     1 Q101   0.1560 
 43 H3       1.7100    13.9580    17.2840 H     1 Q101   0.1600 
 44 H26     10.0020     9.0660    21.3090 H     1 Q101   0.1600 
 45 H24      6.5060    10.1990    23.5560 H     1 Q101   0.1630 
 46 H21      5.1400     9.9570    21.5540 H     1 Q101   0.1530 
 47 H2       1.1560    16.2810    18.3060 H     1 Q101   0.1720 
 48 H12      3.8140     9.9770    17.2740 H     1 Q101   0.0910 
 49 H1       6.3220    10.8200    15.9560 H     1 Q101   0.4670 
@<TRIPOS>BOND
  1   1   2  am  
  2   1   9  1   
  3   1  49  1   
  4   2  21  2   
  5   2  29  1   
  6   2  30  2   
  7   3  11  1   
  8   3  12  1   
  9   3  19  am  
 10   4   7  1   
 11   4   8  1   
 12   4  18  am  
 13   5  19  2   
 14   6  18  2   
 15   7  38  1   
 16   7  39  1   
 17   7  40  1   
 18   8  35  1   
 19   8  36  1   
 20   8  37  1   
 21   9  10  1   
 22   9  19  1   
 23   9  48  1   
 24  10  11  1   
 25  10  33  1   
 26  10  34  1   
 27  11  31  1   
 28  11  32  1   
 29  12  13  ar  
 30  12  14  ar  
 31  13  15  ar  
 32  13  46  1   
 33  14  16  ar  
 34  14  20  1   
 35  15  17  ar  
 36  15  45  1   
 37  16  17  ar  
 38  16  44  1   
 39  17  18  1   
 40  22  23  1   
 41  23  24  2   
 42  23  25  1   
 43  24  26  1   
 44  24  47  1   
 45  25  27  1   
 46  26  27  2   
 47  26  43  1   
 48  27  28  1   
 49  28  29  2   
 50  28  42  1   
 51  29  41  1   
@<TRIPOS>SUBSTRUCTURE
  1 Q101   5 GROUP 4 **** **** 0

# MOE 2011.10 (io_trps.svl 2011.10)

@<TRIPOS>MOLECULE
FXA101_38
49 51 1 0 0 
SMALL
USER_CHARGES


@<TRIPOS>ATOM
  1 N1       7.2240     9.3680    21.2690 N.am  1 Q101  -0.8960 
  2 S1       7.5500     9.8710    22.7690 S.o2  1 Q101   1.3220 
  3 N2       5.7880     7.0280    19.1890 N.am  1 Q101  -0.3970 
  4 N3       4.3240     4.2100    13.4720 N.am  1 Q101  -0.4840 
  5 O3       7.9150     7.8600    18.8860 O.2   1 Q101  -0.6040 
  6 O4       4.6750     6.3510    12.9910 O.2   1 Q101  -0.6060 
  7 C7       5.4200     3.4100    12.9000 C.3   1 Q101   0.0840 
  8 C8       3.0050     3.5710    13.6080 C.3   1 Q101   0.0840 
  9 C12      6.7920     8.0070    21.0530 C.3   1 Q101   0.1690 
 10 C13      5.3080     7.7780    21.3580 C.3   1 Q101  -0.1080 
 11 C14      4.8230     6.8360    20.2620 C.3   1 Q101   0.1020 
 12 C15      5.5270     6.6240    17.8420 C.ar  1 Q101   0.0330 
 13 C21      4.8680     7.4620    16.9530 C.ar  1 Q101  -0.1060 
 14 C22      5.9040     5.3660    17.3930 C.ar  1 Q101   0.1210 
 15 C24      4.6020     7.0670    15.6580 C.ar  1 Q101  -0.0920 
 16 C26      5.6520     4.9350    16.1000 C.ar  1 Q101  -0.1400 
 17 C27      4.9980     5.8080    15.2310 C.ar  1 Q101  -0.1150 
 18 C28      4.6510     5.4570    13.8220 C.2   1 Q101   0.6760 
 19 C50      6.9340     7.6390    19.5800 C.2   1 Q101   0.6950 
 20 F1       6.5330     4.5470    18.2510 F     1 Q101  -0.1400 
 21 O1       6.4090     9.4660    23.5320 O.2   1 Q101  -0.5930 
 22 CL1     13.9830     7.2760    26.5820 Cl    1 Q101  -0.0550 
 23 C1      12.2910     7.5400    26.3260 C.2   1 Q101   0.0330 
 24 C2      11.2820     7.2300    27.1760 C.2   1 Q101  -0.1460 
 25 S2      11.7660     8.2710    24.8600 S.3   1 Q101   0.0240 
 26 C3      10.0420     7.5830    26.6380 C.2   1 Q101  -0.1130 
 27 C4      10.1170     8.1610    25.3760 C.2   1 Q101  -0.0920 
 28 C5       8.9520     8.6100    24.6060 C.2   1 Q101   0.0810 
 29 C6       8.9530     9.0180    23.3370 C.2   1 Q101  -0.4200 
 30 O2       7.8610    11.2590    22.5730 O.2   1 Q101  -0.5930 
 31 H142     3.8110     7.0770    19.9240 H     1 Q101   0.0600 
 32 H141     4.8660     5.7920    20.5900 H     1 Q101   0.0600 
 33 H132     5.1470     7.3720    22.3610 H     1 Q101   0.0720 
 34 H131     4.7590     8.7260    21.2960 H     1 Q101   0.0720 
 35 H83      2.4860     3.6240    12.6530 H     1 Q101   0.0490 
 36 H82      3.1420     2.5280    13.9090 H     1 Q101   0.0490 
 37 H81      2.4410     4.0890    14.3790 H     1 Q101   0.0490 
 38 H73      6.1860     3.2740    13.6680 H     1 Q101   0.0490 
 39 H72      5.0500     2.4400    12.5590 H     1 Q101   0.0490 
 40 H71      5.8670     3.9480    12.0580 H     1 Q101   0.0490 
 41 H6       9.7680     8.8660    22.6450 H     1 Q101   0.1940 
 42 H5       8.0130     8.5380    25.1540 H     1 Q101   0.1560 
 43 H3       9.1020     7.4370    27.1610 H     1 Q101   0.1600 
 44 H26      5.9680     3.9500    15.7830 H     1 Q101   0.1600 
 45 H24      4.0540     7.7280    14.9990 H     1 Q101   0.1630 
 46 H21      4.5380     8.4460    17.2760 H     1 Q101   0.1530 
 47 H2      11.4110     6.7780    28.1500 H     1 Q101   0.1720 
 48 H12      7.3860     7.2800    21.6190 H     1 Q101   0.0910 
 49 H1       7.7560     9.8080    20.5140 H     1 Q101   0.4670 
@<TRIPOS>BOND
  1   1   2  am  
  2   1   9  1   
  3   1  49  1   
  4   2  21  2   
  5   2  29  1   
  6   2  30  2   
  7   3  11  1   
  8   3  12  1   
  9   3  19  am  
 10   4   7  1   
 11   4   8  1   
 12   4  18  am  
 13   5  19  2   
 14   6  18  2   
 15   7  38  1   
 16   7  39  1   
 17   7  40  1   
 18   8  35  1   
 19   8  36  1   
 20   8  37  1   
 21   9  10  1   
 22   9  19  1   
 23   9  48  1   
 24  10  11  1   
 25  10  33  1   
 26  10  34  1   
 27  11  31  1   
 28  11  32  1   
 29  12  13  ar  
 30  12  14  ar  
 31  13  15  ar  
 32  13  46  1   
 33  14  16  ar  
 34  14  20  1   
 35  15  17  ar  
 36  15  45  1   
 37  16  17  ar  
 38  16  44  1   
 39  17  18  1   
 40  22  23  1   
 41  23  24  2   
 42  23  25  1   
 43  24  26  1   
 44  24  47  1   
 45  25  27  1   
 46  26  27  2   
 47  26  43  1   
 48  27  28  1   
 49  28  29  2   
 50  28  42  1   
 51  29  41  1   
@<TRIPOS>SUBSTRUCTURE
  1 Q101  19 GROUP 4 **** **** 0

# MOE 2011.10 (io_trps.svl 2011.10)

@<TRIPOS>MOLECULE
FXA101_39
49 51 1 0 0 
SMALL
USER_CHARGES


@<TRIPOS>ATOM
  1 N1       5.3460     8.0980    23.8650 N.am  1 Q101  -0.8960 
  2 S1       6.6320     9.0370    23.5940 S.o2  1 Q101   1.3220 
  3 N2       2.4380     7.0800    22.3240 N.am  1 Q101  -0.3970 
  4 N3      -1.8840     2.2710    22.7490 N.am  1 Q101  -0.4840 
  5 O3       2.8700     6.7530    24.5640 O.2   1 Q101  -0.6040 
  6 O4      -1.8000     2.6340    20.5580 O.2   1 Q101  -0.6060 
  7 C7      -3.3420     2.0760    22.7530 C.3   1 Q101   0.0840 
  8 C8      -1.1180     1.7560    23.8960 C.3   1 Q101   0.0840 
  9 C12      4.0740     8.4450    23.2740 C.3   1 Q101   0.1690 
 10 C13      4.1280     8.6010    21.7500 C.3   1 Q101  -0.1080 
 11 C14      2.8320     7.9760    21.2460 C.3   1 Q101   0.1020 
 12 C15      1.4880     6.0270    22.1380 C.ar  1 Q101   0.0330 
 13 C21      0.1480     6.2010    22.4570 C.ar  1 Q101  -0.1060 
 14 C22      1.8870     4.7880    21.6580 C.ar  1 Q101   0.1210 
 15 C24     -0.7660     5.1810    22.2940 C.ar  1 Q101  -0.0920 
 16 C26      0.9980     3.7400    21.4830 C.ar  1 Q101  -0.1400 
 17 C27     -0.3430     3.9540    21.8030 C.ar  1 Q101  -0.1150 
 18 C28     -1.3950     2.9020    21.6780 C.2   1 Q101   0.6760 
 19 C50      3.0670     7.3240    23.5010 C.2   1 Q101   0.6950 
 20 F1       3.1840     4.6110    21.3580 F     1 Q101  -0.1400 
 21 O1       6.1200    10.3700    23.6800 O.2   1 Q101  -0.5930 
 22 CL1     13.9740     7.0420    26.4390 Cl    1 Q101  -0.0550 
 23 C1      12.3070     7.4440    26.2020 C.2   1 Q101   0.0330 
 24 C2      11.2690     7.1180    27.0090 C.2   1 Q101  -0.1460 
 25 S2      11.8510     8.3560    24.8170 S.3   1 Q101   0.0240 
 26 C3      10.0620     7.6070    26.5030 C.2   1 Q101  -0.1130 
 27 C4      10.1920     8.3050    25.3090 C.2   1 Q101  -0.0920 
 28 C5       9.0690     8.9100    24.5830 C.2   1 Q101   0.0810 
 29 C6       7.7760     8.7780    24.8770 C.2   1 Q101  -0.4200 
 30 O2       7.1480     8.5140    22.3600 O.2   1 Q101  -0.5930 
 31 H142     2.9730     7.4230    20.3120 H     1 Q101   0.0600 
 32 H141     2.0520     8.7320    21.1160 H     1 Q101   0.0600 
 33 H132     4.2360     9.6450    21.4420 H     1 Q101   0.0720 
 34 H131     4.9840     8.0480    21.3440 H     1 Q101   0.0720 
 35 H83     -1.1670     2.4790    24.7070 H     1 Q101   0.0490 
 36 H82     -1.5460     0.8000    24.2110 H     1 Q101   0.0490 
 37 H81     -0.0880     1.5960    23.5880 H     1 Q101   0.0490 
 38 H73     -3.6070     1.4200    21.9190 H     1 Q101   0.0490 
 39 H72     -3.6700     1.6370    23.6980 H     1 Q101   0.0490 
 40 H71     -3.8420     3.0390    22.6050 H     1 Q101   0.0490 
 41 H6       7.3920     8.5110    25.8500 H     1 Q101   0.1940 
 42 H5       9.3780     9.5580    23.7640 H     1 Q101   0.1560 
 43 H3       9.1080     7.4720    27.0030 H     1 Q101   0.1600 
 44 H26      1.3440     2.7900    21.0980 H     1 Q101   0.1600 
 45 H24     -1.7970     5.3340    22.5850 H     1 Q101   0.1630 
 46 H21     -0.1980     7.1510    22.8570 H     1 Q101   0.1530 
 47 H2      11.3550     6.5590    27.9310 H     1 Q101   0.1720 
 48 H12      3.6400     9.3530    23.7070 H     1 Q101   0.0910 
 49 H1       5.3190     7.6090    24.7630 H     1 Q101   0.4670 
@<TRIPOS>BOND
  1   1   2  am  
  2   1   9  1   
  3   1  49  1   
  4   2  21  2   
  5   2  29  1   
  6   2  30  2   
  7   3  11  1   
  8   3  12  1   
  9   3  19  am  
 10   4   7  1   
 11   4   8  1   
 12   4  18  am  
 13   5  19  2   
 14   6  18  2   
 15   7  38  1   
 16   7  39  1   
 17   7  40  1   
 18   8  35  1   
 19   8  36  1   
 20   8  37  1   
 21   9  10  1   
 22   9  19  1   
 23   9  48  1   
 24  10  11  1   
 25  10  33  1   
 26  10  34  1   
 27  11  31  1   
 28  11  32  1   
 29  12  13  ar  
 30  12  14  ar  
 31  13  15  ar  
 32  13  46  1   
 33  14  16  ar  
 34  14  20  1   
 35  15  17  ar  
 36  15  45  1   
 37  16  17  ar  
 38  16  44  1   
 39  17  18  1   
 40  22  23  1   
 41  23  24  2   
 42  23  25  1   
 43  24  26  1   
 44  24  47  1   
 45  25  27  1   
 46  26  27  2   
 47  26  43  1   
 48  27  28  1   
 49  28  29  2   
 50  28  42  1   
 51  29  41  1   
@<TRIPOS>SUBSTRUCTURE
  1 Q101  19 GROUP 4 **** **** 0

# MOE 2011.10 (io_trps.svl 2011.10)

@<TRIPOS>MOLECULE
FXA101_40
49 51 1 0 0 
SMALL
USER_CHARGES


@<TRIPOS>ATOM
  1 N1       6.1790    11.6020    15.9510 N.am  1 Q101  -0.8960 
  2 S1       5.3690    12.1490    14.6660 S.o2  1 Q101   1.3220 
  3 N2       6.2270    10.1380    19.0700 N.am  1 Q101  -0.3970 
  4 N3       8.5940     8.7000    24.9570 N.am  1 Q101  -0.4840 
  5 O3       6.4510    12.4060    18.7280 O.2   1 Q101  -0.6040 
  6 O4       9.7170    10.5290    24.3800 O.2   1 Q101  -0.6060 
  7 C7       9.7360     8.2400    25.7620 C.3   1 Q101   0.0840 
  8 C8       7.2980     8.0290    25.1550 C.3   1 Q101   0.0840 
  9 C12      5.4590    10.9590    17.0260 C.3   1 Q101   0.1690 
 10 C13      5.4940     9.4290    16.9580 C.3   1 Q101  -0.1080 
 11 C14      5.6540     8.9760    18.4050 C.3   1 Q101   0.1020 
 12 C15      6.8760    10.0530    20.3420 C.ar  1 Q101   0.0330 
 13 C21      8.1820     9.5990    20.4550 C.ar  1 Q101  -0.1060 
 14 C22      6.2040    10.3980    21.5050 C.ar  1 Q101   0.1210 
 15 C24      8.8040     9.5010    21.6830 C.ar  1 Q101  -0.0920 
 16 C26      6.7950    10.3120    22.7550 C.ar  1 Q101  -0.1400 
 17 C27      8.1140     9.8620    22.8300 C.ar  1 Q101  -0.1150 
 18 C28      8.8560     9.7050    24.1160 C.2   1 Q101   0.6760 
 19 C50      6.1060    11.2910    18.3650 C.2   1 Q101   0.6950 
 20 F1       4.9360    10.8300    21.4030 F     1 Q101  -0.1400 
 21 O1       4.3740    11.1500    14.4240 O.2   1 Q101  -0.5930 
 22 CL1      0.0340    18.3330    14.0570 Cl    1 Q101  -0.0550 
 23 C1       1.2750    17.2000    14.4760 C.2   1 Q101   0.0330 
 24 C2       2.0770    17.2410    15.5670 C.2   1 Q101  -0.1460 
 25 S2       1.5710    15.8580    13.4440 S.3   1 Q101   0.0240 
 26 C3       2.9670    16.1630    15.5800 C.2   1 Q101  -0.1130 
 27 C4       2.8340    15.3080    14.4920 C.2   1 Q101  -0.0920 
 28 C5       3.6570    14.1110    14.2810 C.2   1 Q101   0.0810 
 29 C6       4.5910    13.6400    15.1060 C.2   1 Q101  -0.4200 
 30 O2       6.4190    12.4000    13.7180 O.2   1 Q101  -0.5930 
 31 H142     6.3160     8.1090    18.4990 H     1 Q101   0.0600 
 32 H141     4.6840     8.7540    18.8610 H     1 Q101   0.0600 
 33 H132     4.5990     9.0120    16.4870 H     1 Q101   0.0720 
 34 H131     6.3590     9.0960    16.3720 H     1 Q101   0.0720 
 35 H83      7.2820     7.1110    24.5720 H     1 Q101   0.0490 
 36 H82      7.1710     7.8080    26.2190 H     1 Q101   0.0490 
 37 H81      6.5040     8.6990    24.8370 H     1 Q101   0.0490 
 38 H73     10.0480     9.0560    26.4200 H     1 Q101   0.0490 
 39 H72      9.4630     7.3620    26.3520 H     1 Q101   0.0490 
 40 H71     10.5740     7.9900    25.1020 H     1 Q101   0.0490 
 41 H6       4.9060    14.1250    16.0180 H     1 Q101   0.1940 
 42 H5       3.4050    13.5650    13.3730 H     1 Q101   0.1560 
 43 H3       3.6880    15.9950    16.3740 H     1 Q101   0.1600 
 44 H26      6.2420    10.5980    23.6400 H     1 Q101   0.1600 
 45 H24      9.8110     9.1090    21.7430 H     1 Q101   0.1630 
 46 H21      8.7330     9.2980    19.5670 H     1 Q101   0.1530 
 47 H2       2.0350    17.9980    16.3380 H     1 Q101   0.1720 
 48 H12      4.4140    11.2860    17.0900 H     1 Q101   0.0910 
 49 H1       7.0290    12.1100    16.2070 H     1 Q101   0.4670 
@<TRIPOS>BOND
  1   1   2  am  
  2   1   9  1   
  3   1  49  1   
  4   2  21  2   
  5   2  29  1   
  6   2  30  2   
  7   3  11  1   
  8   3  12  1   
  9   3  19  am  
 10   4   7  1   
 11   4   8  1   
 12   4  18  am  
 13   5  19  2   
 14   6  18  2   
 15   7  38  1   
 16   7  39  1   
 17   7  40  1   
 18   8  35  1   
 19   8  36  1   
 20   8  37  1   
 21   9  10  1   
 22   9  19  1   
 23   9  48  1   
 24  10  11  1   
 25  10  33  1   
 26  10  34  1   
 27  11  31  1   
 28  11  32  1   
 29  12  13  ar  
 30  12  14  ar  
 31  13  15  ar  
 32  13  46  1   
 33  14  16  ar  
 34  14  20  1   
 35  15  17  ar  
 36  15  45  1   
 37  16  17  ar  
 38  16  44  1   
 39  17  18  1   
 40  22  23  1   
 41  23  24  2   
 42  23  25  1   
 43  24  26  1   
 44  24  47  1   
 45  25  27  1   
 46  26  27  2   
 47  26  43  1   
 48  27  28  1   
 49  28  29  2   
 50  28  42  1   
 51  29  41  1   
@<TRIPOS>SUBSTRUCTURE
  1 Q101  19 GROUP 4 **** **** 0

# MOE 2011.10 (io_trps.svl 2011.10)

@<TRIPOS>MOLECULE
FXA101_41
49 51 1 0 0 
SMALL
USER_CHARGES


@<TRIPOS>ATOM
  1 N1       5.0730     9.2060    22.3310 N.am  1 Q101  -0.8960 
  2 S1       6.5350     9.3720    22.9970 S.o2  1 Q101   1.3220 
  3 N2       3.0660     8.9060    19.5470 N.am  1 Q101  -0.3970 
  4 N3      -3.1240     9.9780    17.7620 N.am  1 Q101  -0.4840 
  5 O3       2.9120    10.6540    21.0410 O.2   1 Q101  -0.6040 
  6 O4      -2.5380     8.1260    16.6810 O.2   1 Q101  -0.6060 
  7 C7      -4.5200     9.5160    17.8380 C.3   1 Q101   0.0840 
  8 C8      -2.8500    11.3920    18.0630 C.3   1 Q101   0.0840 
  9 C12      4.9310     9.2840    20.8950 C.3   1 Q101   0.1690 
 10 C13      5.1020     7.9360    20.1880 C.3   1 Q101  -0.1080 
 11 C14      4.0480     7.9350    19.0870 C.3   1 Q101   0.1020 
 12 C15      1.7390     8.9670    19.0170 C.ar  1 Q101   0.0330 
 13 C21      0.7430     8.1110    19.4670 C.ar  1 Q101  -0.1060 
 14 C22      1.4160     9.8680    18.0130 C.ar  1 Q101   0.1210 
 15 C24     -0.5330     8.1570    18.9450 C.ar  1 Q101  -0.0920 
 16 C26      0.1460     9.9430    17.4640 C.ar  1 Q101  -0.1400 
 17 C27     -0.8320     9.0750    17.9490 C.ar  1 Q101  -0.1150 
 18 C28     -2.2310     9.0420    17.4280 C.2   1 Q101   0.6760 
 19 C50      3.5190     9.7240    20.5300 C.2   1 Q101   0.6950 
 20 F1       2.3780    10.6920    17.5650 F     1 Q101  -0.1400 
 21 O1       6.9750    10.6620    22.5650 O.2   1 Q101  -0.5930 
 22 CL1     12.6840     7.8710    25.9170 Cl    1 Q101  -0.0550 
 23 C1      11.0870     8.4520    25.5800 C.2   1 Q101   0.0330 
 24 C2      10.7590     9.6100    24.9570 C.2   1 Q101  -0.1460 
 25 S2       9.7310     7.5090    26.0560 S.3   1 Q101   0.0240 
 26 C3       9.3730     9.7550    24.8600 C.2   1 Q101  -0.1130 
 27 C4       8.6540     8.7020    25.4130 C.2   1 Q101  -0.0920 
 28 C5       7.1890     8.6280    25.4360 C.2   1 Q101   0.0810 
 29 C6       6.3480     9.3780    24.7250 C.2   1 Q101  -0.4200 
 30 O2       7.2080     8.1740    22.5780 O.2   1 Q101  -0.5930 
 31 H142     3.5880     6.9510    18.9520 H     1 Q101   0.0600 
 32 H141     4.4660     8.2820    18.1370 H     1 Q101   0.0600 
 33 H132     6.1140     7.7950    19.7970 H     1 Q101   0.0720 
 34 H131     4.9030     7.1140    20.8870 H     1 Q101   0.0720 
 35 H83     -3.0480    11.9880    17.1750 H     1 Q101   0.0490 
 36 H82     -3.4940    11.7130    18.8880 H     1 Q101   0.0490 
 37 H81     -1.8120    11.4920    18.3670 H     1 Q101   0.0490 
 38 H73     -4.5990     8.7800    18.6430 H     1 Q101   0.0490 
 39 H72     -5.1930    10.3560    18.0260 H     1 Q101   0.0490 
 40 H71     -4.7970     9.0290    16.8970 H     1 Q101   0.0490 
 41 H6       5.5540     9.9780    25.1460 H     1 Q101   0.1940 
 42 H5       6.8030     7.8330    26.0750 H     1 Q101   0.1560 
 43 H3       8.8940    10.6040    24.3820 H     1 Q101   0.1600 
 44 H26     -0.0700    10.6640    16.6870 H     1 Q101   0.1600 
 45 H24     -1.2790     7.4540    19.2910 H     1 Q101   0.1630 
 46 H21      0.9640     7.3760    20.2380 H     1 Q101   0.1530 
 47 H2      11.4690    10.3290    24.5740 H     1 Q101   0.1720 
 48 H12      5.6160    10.0100    20.4420 H     1 Q101   0.0910 
 49 H1       4.2770     9.5230    22.8900 H     1 Q101   0.4670 
@<TRIPOS>BOND
  1   1   2  am  
  2   1   9  1   
  3   1  49  1   
  4   2  21  2   
  5   2  29  1   
  6   2  30  2   
  7   3  11  1   
  8   3  12  1   
  9   3  19  am  
 10   4   7  1   
 11   4   8  1   
 12   4  18  am  
 13   5  19  2   
 14   6  18  2   
 15   7  38  1   
 16   7  39  1   
 17   7  40  1   
 18   8  35  1   
 19   8  36  1   
 20   8  37  1   
 21   9  10  1   
 22   9  19  1   
 23   9  48  1   
 24  10  11  1   
 25  10  33  1   
 26  10  34  1   
 27  11  31  1   
 28  11  32  1   
 29  12  13  ar  
 30  12  14  ar  
 31  13  15  ar  
 32  13  46  1   
 33  14  16  ar  
 34  14  20  1   
 35  15  17  ar  
 36  15  45  1   
 37  16  17  ar  
 38  16  44  1   
 39  17  18  1   
 40  22  23  1   
 41  23  24  2   
 42  23  25  1   
 43  24  26  1   
 44  24  47  1   
 45  25  27  1   
 46  26  27  2   
 47  26  43  1   
 48  27  28  1   
 49  28  29  2   
 50  28  42  1   
 51  29  41  1   
@<TRIPOS>SUBSTRUCTURE
  1 Q101  19 GROUP 4 **** **** 0

# MOE 2011.10 (io_trps.svl 2011.10)

@<TRIPOS>MOLECULE
FXA101_42
49 51 1 0 0 
SMALL
USER_CHARGES


@<TRIPOS>ATOM
  1 N1       4.2260    11.4060    15.4550 N.am  1 Q101  -0.8960 
  2 S1       4.3540    11.9360    13.9350 S.o2  1 Q101   1.3220 
  3 N2       5.5590    11.3840    18.6310 N.am  1 Q101  -0.3970 
  4 N3       8.1660     8.7680    23.9820 N.am  1 Q101  -0.4840 
  5 O3       6.5490    10.3400    16.8310 O.2   1 Q101  -0.6040 
  6 O4       8.4370     7.1780    22.4540 O.2   1 Q101  -0.6060 
  7 C7       7.1360     8.3690    24.9540 C.3   1 Q101   0.0840 
  8 C8       9.2540     9.6410    24.4520 C.3   1 Q101   0.0840 
  9 C12      4.9000    12.1160    16.5170 C.3   1 Q101   0.1690 
 10 C13      3.9460    12.7080    17.5600 C.3   1 Q101  -0.1080 
 11 C14      4.6410    12.4820    18.8980 C.3   1 Q101   0.1020 
 12 C15      6.1490    10.6050    19.6760 C.ar  1 Q101   0.0330 
 13 C21      7.3990    10.9200    20.1910 C.ar  1 Q101  -0.1060 
 14 C22      5.4970     9.4920    20.1850 C.ar  1 Q101   0.1210 
 15 C24      7.9760    10.1600    21.1880 C.ar  1 Q101  -0.0920 
 16 C26      6.0460     8.7050    21.1850 C.ar  1 Q101  -0.1400 
 17 C27      7.2990     9.0570    21.6870 C.ar  1 Q101  -0.1150 
 18 C28      8.0060     8.2810    22.7480 C.2   1 Q101   0.6760 
 19 C50      5.7810    11.1600    17.3120 C.2   1 Q101   0.6950 
 20 F1       4.2920     9.1770    19.6840 F     1 Q101  -0.1400 
 21 O1       3.9640    10.8160    13.1360 O.2   1 Q101  -0.5930 
 22 CL1     -0.4190    18.2930    13.6490 Cl    1 Q101  -0.0550 
 23 C1       1.0600    17.4220    13.8760 C.2   1 Q101   0.0330 
 24 C2       2.2660    17.9410    14.2110 C.2   1 Q101  -0.1460 
 25 S2       1.0700    15.7140    13.6730 S.3   1 Q101   0.0240 
 26 C3       3.2380    16.9410    14.3040 C.2   1 Q101  -0.1130 
 27 C4       2.7620    15.6630    14.0380 C.2   1 Q101  -0.0920 
 28 C5       3.5900    14.4520    14.0690 C.2   1 Q101   0.0810 
 29 C6       3.2110    13.2260    13.7100 C.2   1 Q101  -0.4200 
 30 O2       5.6940    12.4510    13.8950 O.2   1 Q101  -0.5930 
 31 H142     3.9380    12.2170    19.6930 H     1 Q101   0.0600 
 32 H141     5.2230    13.3610    19.1960 H     1 Q101   0.0600 
 33 H132     3.7280    13.7630    17.3750 H     1 Q101   0.0720 
 34 H131     2.9910    12.1680    17.5480 H     1 Q101   0.0720 
 35 H83      8.9100    10.6730    24.4430 H     1 Q101   0.0490 
 36 H82      9.5380     9.3430    25.4660 H     1 Q101   0.0490 
 37 H81     10.1120     9.5190    23.7950 H     1 Q101   0.0490 
 38 H73      7.1920     7.2860    25.0920 H     1 Q101   0.0490 
 39 H72      7.2890     8.8800    25.9080 H     1 Q101   0.0490 
 40 H71      6.1440     8.6160    24.5620 H     1 Q101   0.0490 
 41 H6       2.2420    12.9780    13.3030 H     1 Q101   0.1940 
 42 H5       4.6200    14.6370    14.3750 H     1 Q101   0.1560 
 43 H3       4.2700    17.1370    14.5770 H     1 Q101   0.1600 
 44 H26      5.5040     7.8480    21.5630 H     1 Q101   0.1600 
 45 H24      8.9670    10.4090    21.5440 H     1 Q101   0.1630 
 46 H21      7.9500    11.7720    19.8010 H     1 Q101   0.1530 
 47 H2       2.4590    18.9890    14.3930 H     1 Q101   0.1720 
 48 H12      5.5540    12.9130    16.1440 H     1 Q101   0.0910 
 49 H1       4.1080    10.3970    15.5780 H     1 Q101   0.4670 
@<TRIPOS>BOND
  1   1   2  am  
  2   1   9  1   
  3   1  49  1   
  4   2  21  2   
  5   2  29  1   
  6   2  30  2   
  7   3  11  1   
  8   3  12  1   
  9   3  19  am  
 10   4   7  1   
 11   4   8  1   
 12   4  18  am  
 13   5  19  2   
 14   6  18  2   
 15   7  38  1   
 16   7  39  1   
 17   7  40  1   
 18   8  35  1   
 19   8  36  1   
 20   8  37  1   
 21   9  10  1   
 22   9  19  1   
 23   9  48  1   
 24  10  11  1   
 25  10  33  1   
 26  10  34  1   
 27  11  31  1   
 28  11  32  1   
 29  12  13  ar  
 30  12  14  ar  
 31  13  15  ar  
 32  13  46  1   
 33  14  16  ar  
 34  14  20  1   
 35  15  17  ar  
 36  15  45  1   
 37  16  17  ar  
 38  16  44  1   
 39  17  18  1   
 40  22  23  1   
 41  23  24  2   
 42  23  25  1   
 43  24  26  1   
 44  24  47  1   
 45  25  27  1   
 46  26  27  2   
 47  26  43  1   
 48  27  28  1   
 49  28  29  2   
 50  28  42  1   
 51  29  41  1   
@<TRIPOS>SUBSTRUCTURE
  1 Q101   3 GROUP 4 **** **** 0

# MOE 2011.10 (io_trps.svl 2011.10)

@<TRIPOS>MOLECULE
FXA101_43
49 51 1 0 0 
SMALL
USER_CHARGES


@<TRIPOS>ATOM
  1 N1       3.9080    20.2810    12.9970 N.am  1 Q101  -0.8960 
  2 S1       3.7340    21.5500    13.9800 S.o2  1 Q101   1.3220 
  3 N2       2.6020    17.5210    11.4010 N.am  1 Q101  -0.3970 
  4 N3       2.5180    11.4480     9.1200 N.am  1 Q101  -0.4840 
  5 O3       3.8200    17.4010    13.3540 O.2   1 Q101  -0.6040 
  6 O4       4.6380    11.7030     9.7370 O.2   1 Q101  -0.6060 
  7 C7       2.2510    10.1900     9.8350 C.3   1 Q101   0.0840 
  8 C8       1.6680    11.7760     7.9630 C.3   1 Q101   0.0840 
  9 C12      2.7530    19.4840    12.6510 C.3   1 Q101   0.1690 
 10 C13      2.1660    19.8220    11.2760 C.3   1 Q101  -0.1080 
 11 C14      1.7760    18.4750    10.6760 C.3   1 Q101   0.1020 
 12 C15      2.8350    16.1910    10.9270 C.ar  1 Q101   0.0330 
 13 C21      2.0870    15.1190    11.3930 C.ar  1 Q101  -0.1060 
 14 C22      3.8380    15.9330    10.0050 C.ar  1 Q101   0.1210 
 15 C24      2.3220    13.8340    10.9490 C.ar  1 Q101  -0.0920 
 16 C26      4.1040    14.6560     9.5370 C.ar  1 Q101  -0.1400 
 17 C27      3.3240    13.6030    10.0190 C.ar  1 Q101  -0.1150 
 18 C28      3.5220    12.1810     9.6100 C.2   1 Q101   0.6760 
 19 C50      3.1420    18.0150    12.5440 C.2   1 Q101   0.6950 
 20 F1       4.5720    16.9650     9.5580 F     1 Q101  -0.1400 
 21 O1       2.4540    22.0890    13.6370 O.2   1 Q101  -0.5930 
 22 CL1      3.3760    19.8410    21.7390 Cl    1 Q101  -0.0550 
 23 C1       2.9950    20.6820    20.2740 C.2   1 Q101   0.0330 
 24 C2       2.1810    21.7570    20.1430 C.2   1 Q101  -0.1460 
 25 S2       3.6940    20.1530    18.7950 S.3   1 Q101   0.0240 
 26 C3       2.1030    22.1720    18.8110 C.2   1 Q101  -0.1130 
 27 C4       2.8640    21.4060    17.9350 C.2   1 Q101  -0.0920 
 28 C5       2.9420    21.6440    16.4890 C.2   1 Q101   0.0810 
 29 C6       3.6910    20.9690    15.6180 C.2   1 Q101  -0.4200 
 30 O2       4.9420    22.2920    13.7510 O.2   1 Q101  -0.5930 
 31 H142     1.9750    18.4260     9.6010 H     1 Q101   0.0600 
 32 H141     0.7230    18.2450    10.8690 H     1 Q101   0.0600 
 33 H132     1.3190    20.5110    11.3420 H     1 Q101   0.0720 
 34 H131     2.9280    20.2970    10.6460 H     1 Q101   0.0720 
 35 H83      2.0440    11.2500     7.0880 H     1 Q101   0.0490 
 36 H82      0.6400    11.4710     8.1780 H     1 Q101   0.0490 
 37 H81      1.6920    12.8500     7.8030 H     1 Q101   0.0490 
 38 H73      1.9260    10.4320    10.8510 H     1 Q101   0.0490 
 39 H72      1.4800     9.6110     9.3200 H     1 Q101   0.0490 
 40 H71      3.1710     9.6000     9.8980 H     1 Q101   0.0490 
 41 H6       4.2810    20.0970    15.8610 H     1 Q101   0.1940 
 42 H5       2.2680    22.4240    16.1380 H     1 Q101   0.1560 
 43 H3       1.5170    23.0260    18.4860 H     1 Q101   0.1600 
 44 H26      4.8900    14.4930     8.8120 H     1 Q101   0.1600 
 45 H24      1.7460    13.0140    11.3570 H     1 Q101   0.1630 
 46 H21      1.3070    15.2800    12.1330 H     1 Q101   0.1530 
 47 H2       1.6600    22.2420    20.9570 H     1 Q101   0.1720 
 48 H12      1.9560    19.5470    13.4000 H     1 Q101   0.0910 
 49 H1       4.8080    19.7960    13.0310 H     1 Q101   0.4670 
@<TRIPOS>BOND
  1   1   2  am  
  2   1   9  1   
  3   1  49  1   
  4   2  21  2   
  5   2  29  1   
  6   2  30  2   
  7   3  11  1   
  8   3  12  1   
  9   3  19  am  
 10   4   7  1   
 11   4   8  1   
 12   4  18  am  
 13   5  19  2   
 14   6  18  2   
 15   7  38  1   
 16   7  39  1   
 17   7  40  1   
 18   8  35  1   
 19   8  36  1   
 20   8  37  1   
 21   9  10  1   
 22   9  19  1   
 23   9  48  1   
 24  10  11  1   
 25  10  33  1   
 26  10  34  1   
 27  11  31  1   
 28  11  32  1   
 29  12  13  ar  
 30  12  14  ar  
 31  13  15  ar  
 32  13  46  1   
 33  14  16  ar  
 34  14  20  1   
 35  15  17  ar  
 36  15  45  1   
 37  16  17  ar  
 38  16  44  1   
 39  17  18  1   
 40  22  23  1   
 41  23  24  2   
 42  23  25  1   
 43  24  26  1   
 44  24  47  1   
 45  25  27  1   
 46  26  27  2   
 47  26  43  1   
 48  27  28  1   
 49  28  29  2   
 50  28  42  1   
 51  29  41  1   
@<TRIPOS>SUBSTRUCTURE
  1 Q101  19 GROUP 4 **** **** 0

# MOE 2011.10 (io_trps.svl 2011.10)

@<TRIPOS>MOLECULE
FXA101_44
49 51 1 0 0 
SMALL
USER_CHARGES


@<TRIPOS>ATOM
  1 N1       5.8290     8.3460    22.6380 N.am  1 Q101  -0.8960 
  2 S1       6.3410     8.6190    24.1460 S.o2  1 Q101   1.3220 
  3 N2       3.1460     8.3660    20.4780 N.am  1 Q101  -0.3970 
  4 N3       0.4540     9.1400    14.6230 N.am  1 Q101  -0.4840 
  5 O3       4.8950     6.8740    20.3170 O.2   1 Q101  -0.6040 
  6 O4       1.9190     7.5050    14.2750 O.2   1 Q101  -0.6060 
  7 C7       0.4300    10.4370    15.3170 C.3   1 Q101   0.0840 
  8 C8      -0.5230     8.9180    13.5440 C.3   1 Q101   0.0840 
  9 C12      4.4320     8.0660    22.4000 C.3   1 Q101   0.1690 
 10 C13      3.5190     9.2790    22.6060 C.3   1 Q101  -0.1080 
 11 C14      2.4900     9.1890    21.4840 C.3   1 Q101   0.1020 
 12 C15      2.7040     8.3180    19.1180 C.ar  1 Q101   0.0330 
 13 C21      3.2570     9.1470    18.1520 C.ar  1 Q101  -0.1060 
 14 C22      1.6870     7.4570    18.7320 C.ar  1 Q101   0.1210 
 15 C24      2.8200     9.1140    16.8430 C.ar  1 Q101  -0.0920 
 16 C26      1.2220     7.3970    17.4290 C.ar  1 Q101  -0.1400 
 17 C27      1.8090     8.2370    16.4810 C.ar  1 Q101  -0.1150 
 18 C28      1.3850     8.2820    15.0500 C.2   1 Q101   0.6760 
 19 C50      4.2160     7.6740    20.9440 C.2   1 Q101   0.6950 
 20 F1       1.1420     6.6600    19.6650 F     1 Q101  -0.1400 
 21 O1       5.8590     7.4970    24.8900 O.2   1 Q101  -0.5930 
 22 CL1     13.8520     7.2960    27.1160 Cl    1 Q101  -0.0550 
 23 C1      12.4420     7.7170    26.2040 C.2   1 Q101   0.0330 
 24 C2      12.4060     8.1670    24.9260 C.2   1 Q101  -0.1460 
 25 S2      10.8920     7.5670    26.9340 S.3   1 Q101   0.0240 
 26 C3      11.0930     8.4090    24.5130 C.2   1 Q101  -0.1130 
 27 C4      10.1360     8.1400    25.4850 C.2   1 Q101  -0.0920 
 28 C5       8.6930     8.3190    25.2910 C.2   1 Q101   0.0810 
 29 C6       8.0790     8.6010    24.1420 C.2   1 Q101  -0.4200 
 30 O2       5.8610     9.9480    24.4040 O.2   1 Q101  -0.5930 
 31 H142     2.2330    10.1710    21.0760 H     1 Q101   0.0600 
 32 H141     1.5830     8.6760    21.8190 H     1 Q101   0.0600 
 33 H132     3.0570     9.2910    23.5970 H     1 Q101   0.0720 
 34 H131     4.0950    10.2070    22.5000 H     1 Q101   0.0720 
 35 H83     -1.4710     8.6150    13.9820 H     1 Q101   0.0490 
 36 H82     -0.6440     9.8450    12.9760 H     1 Q101   0.0490 
 37 H81     -0.1440     8.1450    12.8810 H     1 Q101   0.0490 
 38 H73      1.3720    10.9550    15.1180 H     1 Q101   0.0490 
 39 H72     -0.4130    11.0420    14.9720 H     1 Q101   0.0490 
 40 H71      0.3470    10.2760    16.3970 H     1 Q101   0.0490 
 41 H6       8.5860     8.8320    23.2160 H     1 Q101   0.1940 
 42 H5       8.1070     8.1440    26.1930 H     1 Q101   0.1560 
 43 H3      10.8350     8.7600    23.5190 H     1 Q101   0.1600 
 44 H26      0.4320     6.7070    17.1630 H     1 Q101   0.1600 
 45 H24      3.2450     9.7970    16.1200 H     1 Q101   0.1630 
 46 H21      4.0400     9.8510    18.4210 H     1 Q101   0.1530 
 47 H2      13.2730     8.3140    24.2970 H     1 Q101   0.1720 
 48 H12      4.0580     7.2350    23.0100 H     1 Q101   0.0910 
 49 H1       6.5010     7.9150    21.9980 H     1 Q101   0.4670 
@<TRIPOS>BOND
  1   1   2  am  
  2   1   9  1   
  3   1  49  1   
  4   2  21  2   
  5   2  29  1   
  6   2  30  2   
  7   3  11  1   
  8   3  12  1   
  9   3  19  am  
 10   4   7  1   
 11   4   8  1   
 12   4  18  am  
 13   5  19  2   
 14   6  18  2   
 15   7  38  1   
 16   7  39  1   
 17   7  40  1   
 18   8  35  1   
 19   8  36  1   
 20   8  37  1   
 21   9  10  1   
 22   9  19  1   
 23   9  48  1   
 24  10  11  1   
 25  10  33  1   
 26  10  34  1   
 27  11  31  1   
 28  11  32  1   
 29  12  13  ar  
 30  12  14  ar  
 31  13  15  ar  
 32  13  46  1   
 33  14  16  ar  
 34  14  20  1   
 35  15  17  ar  
 36  15  45  1   
 37  16  17  ar  
 38  16  44  1   
 39  17  18  1   
 40  22  23  1   
 41  23  24  2   
 42  23  25  1   
 43  24  26  1   
 44  24  47  1   
 45  25  27  1   
 46  26  27  2   
 47  26  43  1   
 48  27  28  1   
 49  28  29  2   
 50  28  42  1   
 51  29  41  1   
@<TRIPOS>SUBSTRUCTURE
  1 Q101  19 GROUP 4 **** **** 0

# MOE 2011.10 (io_trps.svl 2011.10)

@<TRIPOS>MOLECULE
FXA101_45
49 51 1 0 0 
SMALL
USER_CHARGES


@<TRIPOS>ATOM
  1 N1       7.0060     9.4840    21.4500 N.am  1 Q101  -0.8960 
  2 S1       8.1380     9.3640    22.5950 S.o2  1 Q101   1.3220 
  3 N2       4.9800    11.3870    19.4150 N.am  1 Q101  -0.3970 
  4 N3      -0.1350    12.7450    15.6130 N.am  1 Q101  -0.4840 
  5 O3       4.1890    10.1360    21.1810 O.2   1 Q101  -0.6040 
  6 O4      -0.4140    10.6050    16.1440 O.2   1 Q101  -0.6060 
  7 C7       0.9070    13.3560    14.7720 C.3   1 Q101   0.0840 
  8 C8      -1.4540    13.3970    15.6550 C.3   1 Q101   0.0840 
  9 C12      6.5410    10.7890    21.0420 C.3   1 Q101   0.1690 
 10 C13      7.2880    11.3540    19.8290 C.3   1 Q101  -0.1080 
 11 C14      6.2130    12.0340    18.9880 C.3   1 Q101   0.1020 
 12 C15      3.7750    11.4480    18.6460 C.ar  1 Q101   0.0330 
 13 C21      3.6220    10.7010    17.4860 C.ar  1 Q101  -0.1060 
 14 C22      2.7330    12.2820    19.0250 C.ar  1 Q101   0.1210 
 15 C24      2.4660    10.7710    16.7350 C.ar  1 Q101  -0.0920 
 16 C26      1.5590    12.3800    18.2960 C.ar  1 Q101  -0.1400 
 17 C27      1.4350    11.6050    17.1420 C.ar  1 Q101  -0.1150 
 18 C28      0.2320    11.6350    16.2590 C.2   1 Q101   0.6760 
 19 C50      5.0890    10.7100    20.5860 C.2   1 Q101   0.6950 
 20 F1       2.8800    13.0150    20.1410 F     1 Q101  -0.1400 
 21 O1       8.0470    10.5980    23.3110 O.2   1 Q101  -0.5930 
 22 CL1     13.3530     7.5860    26.2630 Cl    1 Q101  -0.0550 
 23 C1      11.6300     7.7560    26.2600 C.2   1 Q101   0.0330 
 24 C2      10.8120     7.7610    27.3400 C.2   1 Q101  -0.1460 
 25 S2      10.8060     7.9480    24.7620 S.3   1 Q101   0.0240 
 26 C3       9.4760     7.9170    26.9610 C.2   1 Q101  -0.1130 
 27 C4       9.2870     8.0300    25.5890 C.2   1 Q101  -0.0920 
 28 C5       7.9770     8.1970    24.9490 C.2   1 Q101   0.0810 
 29 C6       7.7070     8.0530    23.6520 C.2   1 Q101  -0.4200 
 30 O2       9.3120     9.0240    21.8400 O.2   1 Q101  -0.5930 
 31 H142     6.3740    11.8940    17.9150 H     1 Q101   0.0600 
 32 H141     6.1460    13.1020    19.2180 H     1 Q101   0.0600 
 33 H132     8.0900    12.0410    20.1160 H     1 Q101   0.0720 
 34 H131     7.7440    10.5400    19.2520 H     1 Q101   0.0720 
 35 H83     -1.4210    14.2170    16.3690 H     1 Q101   0.0490 
 36 H82     -1.7000    13.7710    14.6570 H     1 Q101   0.0490 
 37 H81     -2.2000    12.6630    15.9500 H     1 Q101   0.0490 
 38 H73      1.1580    12.6570    13.9690 H     1 Q101   0.0490 
 39 H72      0.5580    14.3030    14.3530 H     1 Q101   0.0490 
 40 H71      1.8070    13.5300    15.3710 H     1 Q101   0.0490 
 41 H6       7.2530     7.1770    23.2130 H     1 Q101   0.1940 
 42 H5       7.1730     8.4100    25.6530 H     1 Q101   0.1560 
 43 H3       8.6560     7.9630    27.6720 H     1 Q101   0.1600 
 44 H26      0.7650    13.0350    18.6270 H     1 Q101   0.1600 
 45 H24      2.3900    10.2040    15.8170 H     1 Q101   0.1630 
 46 H21      4.4250    10.0530    17.1450 H     1 Q101   0.1530 
 47 H2      11.1410     7.6660    28.3660 H     1 Q101   0.1720 
 48 H12      6.5780    11.5240    21.8540 H     1 Q101   0.0910 
 49 H1       6.3320     8.7160    21.3910 H     1 Q101   0.4670 
@<TRIPOS>BOND
  1   1   2  am  
  2   1   9  1   
  3   1  49  1   
  4   2  21  2   
  5   2  29  1   
  6   2  30  2   
  7   3  11  1   
  8   3  12  1   
  9   3  19  am  
 10   4   7  1   
 11   4   8  1   
 12   4  18  am  
 13   5  19  2   
 14   6  18  2   
 15   7  38  1   
 16   7  39  1   
 17   7  40  1   
 18   8  35  1   
 19   8  36  1   
 20   8  37  1   
 21   9  10  1   
 22   9  19  1   
 23   9  48  1   
 24  10  11  1   
 25  10  33  1   
 26  10  34  1   
 27  11  31  1   
 28  11  32  1   
 29  12  13  ar  
 30  12  14  ar  
 31  13  15  ar  
 32  13  46  1   
 33  14  16  ar  
 34  14  20  1   
 35  15  17  ar  
 36  15  45  1   
 37  16  17  ar  
 38  16  44  1   
 39  17  18  1   
 40  22  23  1   
 41  23  24  2   
 42  23  25  1   
 43  24  26  1   
 44  24  47  1   
 45  25  27  1   
 46  26  27  2   
 47  26  43  1   
 48  27  28  1   
 49  28  29  2   
 50  28  42  1   
 51  29  41  1   
@<TRIPOS>SUBSTRUCTURE
  1 Q101  19 GROUP 4 **** **** 0

# MOE 2011.10 (io_trps.svl 2011.10)

@<TRIPOS>MOLECULE
FXA101_46
49 51 1 0 0 
SMALL
USER_CHARGES


@<TRIPOS>ATOM
  1 N1       6.2120     4.4670    16.0460 N.am  1 Q101  -0.8960 
  2 S1       5.7160     3.3950    14.9450 S.o2  1 Q101   1.3220 
  3 N2       7.2090     5.1990    19.2610 N.am  1 Q101  -0.3970 
  4 N3       9.2060     8.9800    24.1700 N.am  1 Q101  -0.4840 
  5 O3       5.4360     6.2340    18.2150 O.2   1 Q101  -0.6040 
  6 O4       8.2160    10.4030    22.7800 O.2   1 Q101  -0.6060 
  7 C7      10.6000     9.4500    24.1880 C.3   1 Q101   0.0840 
  8 C8       8.7030     8.2750    25.3610 C.3   1 Q101   0.0840 
  9 C12      6.2860     4.0790    17.4360 C.3   1 Q101   0.1690 
 10 C13      7.6060     3.3980    17.8120 C.3   1 Q101  -0.1080 
 11 C14      7.9490     3.9470    19.1930 C.3   1 Q101   0.1020 
 12 C15      7.5130     6.2190    20.2170 C.ar  1 Q101   0.0330 
 13 C21      8.4810     7.1800    19.9620 C.ar  1 Q101  -0.1060 
 14 C22      6.8640     6.2590    21.4420 C.ar  1 Q101   0.1210 
 15 C24      8.7870     8.1550    20.8890 C.ar  1 Q101  -0.0920 
 16 C26      7.1460     7.2220    22.3980 C.ar  1 Q101  -0.1400 
 17 C27      8.1170     8.1790    22.1030 C.ar  1 Q101  -0.1150 
 18 C28      8.5250     9.2550    23.0540 C.2   1 Q101   0.6760 
 19 C50      6.2300     5.3120    18.3290 C.2   1 Q101   0.6950 
 20 F1       5.9330     5.3260    21.7000 F     1 Q101  -0.1400 
 21 O1       4.4420     2.9590    15.4270 O.2   1 Q101  -0.5930 
 22 CL1      4.6200     6.3400     7.6370 Cl    1 Q101  -0.0550 
 23 C1       5.1010     5.1830     8.8320 C.2   1 Q101   0.0330 
 24 C2       5.6340     3.9580     8.6070 C.2   1 Q101  -0.1460 
 25 S2       4.9150     5.5670    10.4970 S.3   1 Q101   0.0240 
 26 C3       5.8980     3.2940     9.8080 C.2   1 Q101  -0.1130 
 27 C4       5.5630     4.0240    10.9420 C.2   1 Q101  -0.0920 
 28 C5       5.7430     3.5400    12.3160 C.2   1 Q101   0.0810 
 29 C6       5.5030     4.2260    13.4330 C.2   1 Q101  -0.4200 
 30 O2       6.8300     2.4940    14.8600 O.2   1 Q101  -0.5930 
 31 H142     9.0230     4.1220    19.3150 H     1 Q101   0.0600 
 32 H141     7.5890     3.2820    19.9850 H     1 Q101   0.0600 
 33 H132     7.5290     2.3060    17.8040 H     1 Q101   0.0720 
 34 H131     8.3920     3.6780    17.1010 H     1 Q101   0.0720 
 35 H83      9.0080     7.2320    25.3090 H     1 Q101   0.0490 
 36 H82      9.1150     8.7490    26.2570 H     1 Q101   0.0490 
 37 H81      7.6200     8.3560    25.3860 H     1 Q101   0.0490 
 38 H73     10.5990    10.5420    24.1450 H     1 Q101   0.0490 
 39 H72     11.1110     9.1080    25.0920 H     1 Q101   0.0490 
 40 H71     11.1270     9.0720    23.3050 H     1 Q101   0.0490 
 41 H6       5.1990     5.2630    13.4630 H     1 Q101   0.1940 
 42 H5       6.0580     2.4990    12.3730 H     1 Q101   0.1560 
 43 H3       6.3420     2.3040     9.8580 H     1 Q101   0.1600 
 44 H26      6.6130     7.2260    23.3400 H     1 Q101   0.1600 
 45 H24      9.5720     8.8680    20.6760 H     1 Q101   0.1630 
 46 H21      9.0270     7.1670    19.0210 H     1 Q101   0.1530 
 47 H2       5.8390     3.5420     7.6300 H     1 Q101   0.1720 
 48 H12      5.4550     3.4310    17.7380 H     1 Q101   0.0910 
 49 H1       6.0040     5.4500    15.8530 H     1 Q101   0.4670 
@<TRIPOS>BOND
  1   1   2  am  
  2   1   9  1   
  3   1  49  1   
  4   2  21  2   
  5   2  29  1   
  6   2  30  2   
  7   3  11  1   
  8   3  12  1   
  9   3  19  am  
 10   4   7  1   
 11   4   8  1   
 12   4  18  am  
 13   5  19  2   
 14   6  18  2   
 15   7  38  1   
 16   7  39  1   
 17   7  40  1   
 18   8  35  1   
 19   8  36  1   
 20   8  37  1   
 21   9  10  1   
 22   9  19  1   
 23   9  48  1   
 24  10  11  1   
 25  10  33  1   
 26  10  34  1   
 27  11  31  1   
 28  11  32  1   
 29  12  13  ar  
 30  12  14  ar  
 31  13  15  ar  
 32  13  46  1   
 33  14  16  ar  
 34  14  20  1   
 35  15  17  ar  
 36  15  45  1   
 37  16  17  ar  
 38  16  44  1   
 39  17  18  1   
 40  22  23  1   
 41  23  24  2   
 42  23  25  1   
 43  24  26  1   
 44  24  47  1   
 45  25  27  1   
 46  26  27  2   
 47  26  43  1   
 48  27  28  1   
 49  28  29  2   
 50  28  42  1   
 51  29  41  1   
@<TRIPOS>SUBSTRUCTURE
  1 Q101  19 GROUP 4 **** **** 0

# MOE 2011.10 (io_trps.svl 2011.10)

@<TRIPOS>MOLECULE
FXA101_47
49 51 1 0 0 
SMALL
USER_CHARGES


@<TRIPOS>ATOM
  1 N1       5.7190     8.6060    21.6160 N.am  1 Q101  -0.8960 
  2 S1       7.0890     8.5980    22.4710 S.o2  1 Q101   1.3220 
  3 N2       3.6500     6.4950    19.8480 N.am  1 Q101  -0.3970 
  4 N3       2.6860     3.3530    14.1920 N.am  1 Q101  -0.4840 
  5 O3       5.9340     6.5750    19.5530 O.2   1 Q101  -0.6040 
  6 O4       1.4100     5.1690    14.0750 O.2   1 Q101  -0.6060 
  7 C7       1.6870     2.3980    13.6880 C.3   1 Q101   0.0840 
  8 C8       4.1080     2.9890    14.0720 C.3   1 Q101   0.0840 
  9 C12      4.8870     7.4250    21.5920 C.3   1 Q101   0.1690 
 10 C13      3.4020     7.7160    21.8350 C.3   1 Q101  -0.1080 
 11 C14      2.6610     6.7930    20.8740 C.3   1 Q101   0.1020 
 12 C15      3.2920     5.9650    18.5680 C.ar  1 Q101   0.0330 
 13 C21      3.5560     6.6660    17.3990 C.ar  1 Q101  -0.1060 
 14 C22      2.6440     4.7440    18.4620 C.ar  1 Q101   0.1210 
 15 C24      3.1970     6.1640    16.1650 C.ar  1 Q101  -0.0920 
 16 C26      2.2670     4.2080    17.2410 C.ar  1 Q101  -0.1400 
 17 C27      2.5580     4.9350    16.0860 C.ar  1 Q101  -0.1150 
 18 C28      2.1880     4.4780    14.7130 C.2   1 Q101   0.6760 
 19 C50      4.9240     6.7850    20.2100 C.2   1 Q101   0.6950 
 20 F1       2.3770     4.0660    19.5900 F     1 Q101  -0.1400 
 21 O1       7.9240     9.5520    21.8070 O.2   1 Q101  -0.5930 
 22 CL1     12.4840     7.0910    26.6200 Cl    1 Q101  -0.0550 
 23 C1      11.0800     7.7850    25.8810 C.2   1 Q101   0.0330 
 24 C2      11.0560     8.7130    24.8940 C.2   1 Q101  -0.1460 
 25 S2       9.5210     7.2860    26.4060 S.3   1 Q101   0.0240 
 26 C3       9.7450     9.0450    24.5450 C.2   1 Q101  -0.1130 
 27 C4       8.7770     8.3640    25.2740 C.2   1 Q101  -0.0920 
 28 C5       7.3320     8.5430    25.0920 C.2   1 Q101   0.0810 
 29 C6       6.7340     9.1650    24.0750 C.2   1 Q101  -0.4200 
 30 O2       7.4300     7.2030    22.5030 O.2   1 Q101  -0.5930 
 31 H142     1.7780     7.2700    20.4380 H     1 Q101   0.0600 
 32 H141     2.3730     5.8580    21.3660 H     1 Q101   0.0600 
 33 H132     3.1110     7.5550    22.8770 H     1 Q101   0.0720 
 34 H131     3.1760     8.7600    21.5880 H     1 Q101   0.0720 
 35 H83      4.3780     2.3380    14.9000 H     1 Q101   0.0490 
 36 H82      4.2650     2.4790    13.1180 H     1 Q101   0.0490 
 37 H81      4.7050     3.8970    14.0890 H     1 Q101   0.0490 
 38 H73      1.1570     2.8610    12.8510 H     1 Q101   0.0490 
 39 H72      2.1690     1.4720    13.3640 H     1 Q101   0.0490 
 40 H71      0.9600     2.1760    14.4760 H     1 Q101   0.0490 
 41 H6       6.0380     9.9840    24.1800 H     1 Q101   0.1940 
 42 H5       6.7320     8.0620    25.8640 H     1 Q101   0.1560 
 43 H3       9.4980     9.7580    23.7650 H     1 Q101   0.1600 
 44 H26      1.7700     3.2480    17.1960 H     1 Q101   0.1600 
 45 H24      3.3830     6.7490    15.2740 H     1 Q101   0.1630 
 46 H21      4.0420     7.6370    17.4440 H     1 Q101   0.1530 
 47 H2      11.9320     9.1400    24.4260 H     1 Q101   0.1720 
 48 H12      5.2190     6.6600    22.3040 H     1 Q101   0.0910 
 49 H1       5.7040     9.1970    20.7810 H     1 Q101   0.4670 
@<TRIPOS>BOND
  1   1   2  am  
  2   1   9  1   
  3   1  49  1   
  4   2  21  2   
  5   2  29  1   
  6   2  30  2   
  7   3  11  1   
  8   3  12  1   
  9   3  19  am  
 10   4   7  1   
 11   4   8  1   
 12   4  18  am  
 13   5  19  2   
 14   6  18  2   
 15   7  38  1   
 16   7  39  1   
 17   7  40  1   
 18   8  35  1   
 19   8  36  1   
 20   8  37  1   
 21   9  10  1   
 22   9  19  1   
 23   9  48  1   
 24  10  11  1   
 25  10  33  1   
 26  10  34  1   
 27  11  31  1   
 28  11  32  1   
 29  12  13  ar  
 30  12  14  ar  
 31  13  15  ar  
 32  13  46  1   
 33  14  16  ar  
 34  14  20  1   
 35  15  17  ar  
 36  15  45  1   
 37  16  17  ar  
 38  16  44  1   
 39  17  18  1   
 40  22  23  1   
 41  23  24  2   
 42  23  25  1   
 43  24  26  1   
 44  24  47  1   
 45  25  27  1   
 46  26  27  2   
 47  26  43  1   
 48  27  28  1   
 49  28  29  2   
 50  28  42  1   
 51  29  41  1   
@<TRIPOS>SUBSTRUCTURE
  1 Q101  19 GROUP 4 **** **** 0

# MOE 2011.10 (io_trps.svl 2011.10)

@<TRIPOS>MOLECULE
FXA101_48
49 51 1 0 0 
SMALL
USER_CHARGES


@<TRIPOS>ATOM
  1 N1       6.0310     8.6720    21.8900 N.am  1 Q101  -0.8960 
  2 S1       5.6680     9.1080    23.4020 S.o2  1 Q101   1.3220 
  3 N2       5.6650     6.2260    19.4920 N.am  1 Q101  -0.3970 
  4 N3       8.9860     1.1300    17.1570 N.am  1 Q101  -0.4840 
  5 O3       6.7020     5.8720    21.5200 O.2   1 Q101  -0.6040 
  6 O4       7.7410     1.7900    15.4380 O.2   1 Q101  -0.6060 
  7 C7       8.9920     1.1270    18.6280 C.3   1 Q101   0.0840 
  8 C8       9.9250     0.2330    16.4630 C.3   1 Q101   0.0840 
  9 C12      5.1700     7.7480    21.1890 C.3   1 Q101   0.1690 
 10 C13      4.6300     8.2970    19.8650 C.3   1 Q101  -0.1080 
 11 C14      4.6730     7.1140    18.9040 C.3   1 Q101   0.1020 
 12 C15      6.2900     5.1740    18.7510 C.ar  1 Q101   0.0330 
 13 C21      5.5610     4.0890    18.2850 C.ar  1 Q101  -0.1060 
 14 C22      7.6540     5.1970    18.5010 C.ar  1 Q101   0.1210 
 15 C24      6.1660     3.0660    17.5840 C.ar  1 Q101  -0.0920 
 16 C26      8.2960     4.1870    17.8020 C.ar  1 Q101  -0.1400 
 17 C27      7.5300     3.1170    17.3380 C.ar  1 Q101  -0.1150 
 18 C28      8.1040     1.9590    16.5910 C.2   1 Q101   0.6760 
 19 C50      5.9520     6.5020    20.7890 C.2   1 Q101   0.6950 
 20 F1       8.3670     6.2390    18.9580 F     1 Q101  -0.1400 
 21 O1       4.2830     9.4610    23.3450 O.2   1 Q101  -0.5930 
 22 CL1     12.0730     8.1800    24.6880 Cl    1 Q101  -0.0550 
 23 C1      10.4720     8.1280    25.3470 C.2   1 Q101   0.0330 
 24 C2      10.1290     8.2100    26.6550 C.2   1 Q101  -0.1460 
 25 S2       9.1310     7.9600    24.2840 S.3   1 Q101   0.0240 
 26 C3       8.7440     8.1290    26.8190 C.2   1 Q101  -0.1130 
 27 C4       8.0410     7.9860    25.6290 C.2   1 Q101  -0.0920 
 28 C5       6.5800     7.8760    25.5430 C.2   1 Q101   0.0810 
 29 C6       5.8640     7.7200    24.4310 C.2   1 Q101  -0.4200 
 30 O2       6.6760    10.0870    23.6970 O.2   1 Q101  -0.5930 
 31 H142     4.9670     7.4100    17.8920 H     1 Q101   0.0600 
 32 H141     3.7100     6.5930    18.8720 H     1 Q101   0.0600 
 33 H132     3.6240     8.7160    19.9660 H     1 Q101   0.0720 
 34 H131     5.2830     9.0950    19.4920 H     1 Q101   0.0720 
 35 H83     10.9010     0.7120    16.4150 H     1 Q101   0.0490 
 36 H82      9.9900    -0.7100    17.0130 H     1 Q101   0.0490 
 37 H81      9.5480     0.0340    15.4640 H     1 Q101   0.0490 
 38 H73      8.0250     0.7580    18.9780 H     1 Q101   0.0490 
 39 H72      9.7990     0.4950    19.0080 H     1 Q101   0.0490 
 40 H71      9.1250     2.1500    18.9970 H     1 Q101   0.0490 
 41 H6       5.4090     6.7910    24.1190 H     1 Q101   0.1940 
 42 H5       6.0850     7.8790    26.5140 H     1 Q101   0.1560 
 43 H3       8.2540     8.1890    27.7860 H     1 Q101   0.1600 
 44 H26      9.3610     4.2430    17.6180 H     1 Q101   0.1600 
 45 H24      5.5780     2.2160    17.2650 H     1 Q101   0.1630 
 46 H21      4.4940     4.0250    18.4820 H     1 Q101   0.1530 
 47 H2      10.8280     8.3300    27.4710 H     1 Q101   0.1720 
 48 H12      4.3260     7.4080    21.8010 H     1 Q101   0.0910 
 49 H1       7.0240     8.6520    21.6460 H     1 Q101   0.4670 
@<TRIPOS>BOND
  1   1   2  am  
  2   1   9  1   
  3   1  49  1   
  4   2  21  2   
  5   2  29  1   
  6   2  30  2   
  7   3  11  1   
  8   3  12  1   
  9   3  19  am  
 10   4   7  1   
 11   4   8  1   
 12   4  18  am  
 13   5  19  2   
 14   6  18  2   
 15   7  38  1   
 16   7  39  1   
 17   7  40  1   
 18   8  35  1   
 19   8  36  1   
 20   8  37  1   
 21   9  10  1   
 22   9  19  1   
 23   9  48  1   
 24  10  11  1   
 25  10  33  1   
 26  10  34  1   
 27  11  31  1   
 28  11  32  1   
 29  12  13  ar  
 30  12  14  ar  
 31  13  15  ar  
 32  13  46  1   
 33  14  16  ar  
 34  14  20  1   
 35  15  17  ar  
 36  15  45  1   
 37  16  17  ar  
 38  16  44  1   
 39  17  18  1   
 40  22  23  1   
 41  23  24  2   
 42  23  25  1   
 43  24  26  1   
 44  24  47  1   
 45  25  27  1   
 46  26  27  2   
 47  26  43  1   
 48  27  28  1   
 49  28  29  2   
 50  28  42  1   
 51  29  41  1   
@<TRIPOS>SUBSTRUCTURE
  1 Q101   5 GROUP 4 **** **** 0

# MOE 2011.10 (io_trps.svl 2011.10)

@<TRIPOS>MOLECULE
FXA101_49
49 51 1 0 0 
SMALL
USER_CHARGES


@<TRIPOS>ATOM
  1 N1       6.8190     9.4490    21.5950 N.am  1 Q101  -0.8960 
  2 S1       7.3930    10.3400    22.8150 S.o2  1 Q101   1.3220 
  3 N2       4.0850     7.3830    21.2480 N.am  1 Q101  -0.3970 
  4 N3       2.5220     1.2350    22.6820 N.am  1 Q101  -0.4840 
  5 O3       5.2140     7.6730    23.2360 O.2   1 Q101  -0.6040 
  6 O4       0.6130     2.0860    21.9250 O.2   1 Q101  -0.6060 
  7 C7       2.1780     0.7800    24.0380 C.3   1 Q101   0.0840 
  8 C8       3.6140     0.5410    21.9800 C.3   1 Q101   0.0840 
  9 C12      5.3920     9.3070    21.4270 C.3   1 Q101   0.1690 
 10 C13      4.9600     9.1410    19.9660 C.3   1 Q101  -0.1080 
 11 C14      3.8480     8.0980    20.0020 C.3   1 Q101   0.1020 
 12 C15      3.5140     6.0990    21.5160 C.ar  1 Q101   0.0330 
 13 C21      3.8020     5.0010    20.7180 C.ar  1 Q101  -0.1060 
 14 C22      2.6300     5.9230    22.5710 C.ar  1 Q101   0.1210 
 15 C24      3.2380     3.7660    20.9660 C.ar  1 Q101  -0.0920 
 16 C26      2.0440     4.6990    22.8500 C.ar  1 Q101  -0.1400 
 17 C27      2.3650     3.6140    22.0330 C.ar  1 Q101  -0.1150 
 18 C28      1.7880     2.2500    22.2160 C.2   1 Q101   0.6760 
 19 C50      4.9080     8.0330    22.1090 C.2   1 Q101   0.6950 
 20 F1       2.3400     6.9840    23.3410 F     1 Q101  -0.1400 
 21 O1       6.3680    10.2740    23.8110 O.2   1 Q101  -0.5930 
 22 CL1     13.6890     7.2800    26.5780 Cl    1 Q101  -0.0550 
 23 C1      12.0260     7.6980    26.3390 C.2   1 Q101   0.0330 
 24 C2      11.0070     7.5080    27.2120 C.2   1 Q101  -0.1460 
 25 S2      11.5490     8.4390    24.8630 S.3   1 Q101   0.0240 
 26 C3       9.7960     7.9640    26.6820 C.2   1 Q101  -0.1130 
 27 C4       9.9050     8.5000    25.4050 C.2   1 Q101  -0.0920 
 28 C5       8.7760     9.0400    24.6400 C.2   1 Q101   0.0810 
 29 C6       8.8310     9.5730    23.4200 C.2   1 Q101  -0.4200 
 30 O2       7.7270    11.5780    22.1690 O.2   1 Q101  -0.5930 
 31 H142     3.8900     7.4160    19.1470 H     1 Q101   0.0600 
 32 H141     2.8620     8.5720    20.0510 H     1 Q101   0.0600 
 33 H132     4.6340    10.0840    19.5180 H     1 Q101   0.0720 
 34 H131     5.7970     8.7640    19.3650 H     1 Q101   0.0720 
 35 H83      4.5660     0.9520    22.3110 H     1 Q101   0.0490 
 36 H82      3.5610    -0.5280    22.2060 H     1 Q101   0.0490 
 37 H81      3.4890     0.6820    20.9090 H     1 Q101   0.0490 
 38 H73      1.1600     0.3790    24.0200 H     1 Q101   0.0490 
 39 H72      2.8800     0.0140    24.3770 H     1 Q101   0.0490 
 40 H71      2.2010     1.6300    24.7280 H     1 Q101   0.0490 
 41 H6       9.7080     9.5730    22.7890 H     1 Q101   0.1940 
 42 H5       7.8150     8.9240    25.1410 H     1 Q101   0.1560 
 43 H3       8.8560     7.9210    27.2230 H     1 Q101   0.1600 
 44 H26      1.3650     4.5980    23.6860 H     1 Q101   0.1600 
 45 H24      3.4540     2.9370    20.3060 H     1 Q101   0.1630 
 46 H21      4.4730     5.1060    19.8690 H     1 Q101   0.1530 
 47 H2      11.1080     7.0690    28.1950 H     1 Q101   0.1720 
 48 H12      4.8290    10.1360    21.8700 H     1 Q101   0.0910 
 49 H1       7.4000     8.6640    21.2900 H     1 Q101   0.4670 
@<TRIPOS>BOND
  1   1   2  am  
  2   1   9  1   
  3   1  49  1   
  4   2  21  2   
  5   2  29  1   
  6   2  30  2   
  7   3  11  1   
  8   3  12  1   
  9   3  19  am  
 10   4   7  1   
 11   4   8  1   
 12   4  18  am  
 13   5  19  2   
 14   6  18  2   
 15   7  38  1   
 16   7  39  1   
 17   7  40  1   
 18   8  35  1   
 19   8  36  1   
 20   8  37  1   
 21   9  10  1   
 22   9  19  1   
 23   9  48  1   
 24  10  11  1   
 25  10  33  1   
 26  10  34  1   
 27  11  31  1   
 28  11  32  1   
 29  12  13  ar  
 30  12  14  ar  
 31  13  15  ar  
 32  13  46  1   
 33  14  16  ar  
 34  14  20  1   
 35  15  17  ar  
 36  15  45  1   
 37  16  17  ar  
 38  16  44  1   
 39  17  18  1   
 40  22  23  1   
 41  23  24  2   
 42  23  25  1   
 43  24  26  1   
 44  24  47  1   
 45  25  27  1   
 46  26  27  2   
 47  26  43  1   
 48  27  28  1   
 49  28  29  2   
 50  28  42  1   
 51  29  41  1   
@<TRIPOS>SUBSTRUCTURE
  1 Q101   5 GROUP 4 **** **** 0

# MOE 2011.10 (io_trps.svl 2011.10)

@<TRIPOS>MOLECULE
FXA101_50
49 51 1 0 0 
SMALL
USER_CHARGES


@<TRIPOS>ATOM
  1 N1       6.2980    10.0280    20.4480 N.am  1 Q101  -0.8960 
  2 S1       7.2910    10.1990    21.7110 S.o2  1 Q101   1.3220 
  3 N2       4.7040     7.6930    18.4790 N.am  1 Q101  -0.3970 
  4 N3       3.4940     4.1790    13.1430 N.am  1 Q101  -0.4840 
  5 O3       6.9840     7.7310    18.8100 O.2   1 Q101  -0.6040 
  6 O4       5.4560     5.1230    12.6990 O.2   1 Q101  -0.6060 
  7 C7       3.8220     2.7890    12.7890 C.3   1 Q101   0.0840 
  8 C8       2.0790     4.5840    13.1010 C.3   1 Q101   0.0840 
  9 C12      5.4600     8.8550    20.3550 C.3   1 Q101   0.1690 
 10 C13      3.9770     9.1770    20.1430 C.3   1 Q101  -0.1080 
 11 C14      3.4880     8.1300    19.1480 C.3   1 Q101   0.1020 
 12 C15      4.6860     6.9920    17.2320 C.ar  1 Q101   0.0330 
 13 C21      4.3120     7.6260    16.0550 C.ar  1 Q101  -0.1060 
 14 C22      5.0150     5.6460    17.1700 C.ar  1 Q101   0.1210 
 15 C24      4.2770     6.9460    14.8540 C.ar  1 Q101  -0.0920 
 16 C26      4.9910     4.9310    15.9830 C.ar  1 Q101  -0.1400 
 17 C27      4.6210     5.6030    14.8180 C.ar  1 Q101  -0.1150 
 18 C28      4.5370     4.9430    13.4810 C.2   1 Q101   0.6760 
 19 C50      5.8440     8.0300    19.1320 C.2   1 Q101   0.6950 
 20 F1       5.3680     5.0250    18.3070 F     1 Q101  -0.1400 
 21 O1       7.7690    11.5420    21.6030 O.2   1 Q101  -0.5930 
 22 CL1     11.8090     7.7700    26.1370 Cl    1 Q101  -0.0550 
 23 C1      10.4620     8.5660    25.3940 C.2   1 Q101   0.0330 
 24 C2      10.4630     9.7840    24.8020 C.2   1 Q101  -0.1460 
 25 S2       8.9320     7.7800    25.3670 S.3   1 Q101   0.0240 
 26 C3       9.1950    10.1090    24.3120 C.2   1 Q101  -0.1130 
 27 C4       8.2350     9.1300    24.5370 C.2   1 Q101  -0.0920 
 28 C5       6.8320     9.2420    24.1200 C.2   1 Q101   0.0810 
 29 C6       6.3530    10.0390    23.1660 C.2   1 Q101  -0.4200 
 30 O2       8.1760     9.0780    21.5680 O.2   1 Q101  -0.5930 
 31 H142     2.7740     8.5430    18.4280 H     1 Q101   0.0600 
 32 H141     3.0420     7.2720    19.6620 H     1 Q101   0.0600 
 33 H132     3.4090     9.1620    21.0780 H     1 Q101   0.0720 
 34 H131     3.8660    10.1770    19.7070 H     1 Q101   0.0720 
 35 H83      1.8120     4.8310    12.0750 H     1 Q101   0.0490 
 36 H82      1.4610     3.7600    13.4680 H     1 Q101   0.0490 
 37 H81      1.9410     5.4460    13.7490 H     1 Q101   0.0490 
 38 H73      4.2330     2.2930    13.6720 H     1 Q101   0.0490 
 39 H72      2.9310     2.2610    12.4390 H     1 Q101   0.0490 
 40 H71      4.5840     2.7800    12.0020 H     1 Q101   0.0490 
 41 H6       5.4200    10.5800    23.2290 H     1 Q101   0.1940 
 42 H5       6.1680     8.5510    24.6370 H     1 Q101   0.1560 
 43 H3       8.9780    11.0340    23.7870 H     1 Q101   0.1600 
 44 H26      5.2630     3.8840    15.9720 H     1 Q101   0.1600 
 45 H24      3.9470     7.4580    13.9600 H     1 Q101   0.1630 
 46 H21      4.0250     8.6740    16.0680 H     1 Q101   0.1530 
 47 H2      11.3290    10.4250    24.7070 H     1 Q101   0.1720 
 48 H12      5.5570     8.1950    21.2250 H     1 Q101   0.0910 
 49 H1       6.6040    10.4460    19.5660 H     1 Q101   0.4670 
@<TRIPOS>BOND
  1   1   2  am  
  2   1   9  1   
  3   1  49  1   
  4   2  21  2   
  5   2  29  1   
  6   2  30  2   
  7   3  11  1   
  8   3  12  1   
  9   3  19  am  
 10   4   7  1   
 11   4   8  1   
 12   4  18  am  
 13   5  19  2   
 14   6  18  2   
 15   7  38  1   
 16   7  39  1   
 17   7  40  1   
 18   8  35  1   
 19   8  36  1   
 20   8  37  1   
 21   9  10  1   
 22   9  19  1   
 23   9  48  1   
 24  10  11  1   
 25  10  33  1   
 26  10  34  1   
 27  11  31  1   
 28  11  32  1   
 29  12  13  ar  
 30  12  14  ar  
 31  13  15  ar  
 32  13  46  1   
 33  14  16  ar  
 34  14  20  1   
 35  15  17  ar  
 36  15  45  1   
 37  16  17  ar  
 38  16  44  1   
 39  17  18  1   
 40  22  23  1   
 41  23  24  2   
 42  23  25  1   
 43  24  26  1   
 44  24  47  1   
 45  25  27  1   
 46  26  27  2   
 47  26  43  1   
 48  27  28  1   
 49  28  29  2   
 50  28  42  1   
 51  29  41  1   
@<TRIPOS>SUBSTRUCTURE
  1 Q101  19 GROUP 4 **** **** 0

# MOE 2011.10 (io_trps.svl 2011.10)

@<TRIPOS>MOLECULE
FXA101_51
49 51 1 0 0 
SMALL
USER_CHARGES


@<TRIPOS>ATOM
  1 N1       6.0270    11.8160    16.0060 N.am  1 Q101  -0.8960 
  2 S1       5.1320    12.2860    14.7470 S.o2  1 Q101   1.3220 
  3 N2       6.3900    10.0480    18.9410 N.am  1 Q101  -0.3970 
  4 N3       8.6840     8.6650    24.8740 N.am  1 Q101  -0.4840 
  5 O3       6.1520    12.3390    18.8590 O.2   1 Q101  -0.6040 
  6 O4      10.0380    10.2720    24.1500 O.2   1 Q101  -0.6060 
  7 C7       9.6250     8.4670    25.9870 C.3   1 Q101   0.0840 
  8 C8       7.4410     7.8760    24.8760 C.3   1 Q101   0.0840 
  9 C12      5.4580    10.9240    16.9900 C.3   1 Q101   0.1690 
 10 C13      5.7990     9.4500    16.7520 C.3   1 Q101  -0.1080 
 11 C14      6.0580     8.8780    18.1410 C.3   1 Q101   0.1020 
 12 C15      7.0520     9.9510    20.2050 C.ar  1 Q101   0.0330 
 13 C21      8.3150     9.3880    20.3160 C.ar  1 Q101  -0.1060 
 14 C22      6.4340    10.3960    21.3650 C.ar  1 Q101   0.1210 
 15 C24      8.9480     9.2790    21.5370 C.ar  1 Q101  -0.0920 
 16 C26      7.0380    10.3020    22.6090 C.ar  1 Q101  -0.1400 
 17 C27      8.3130     9.7400    22.6810 C.ar  1 Q101  -0.1150 
 18 C28      9.0620     9.5640    23.9600 C.2   1 Q101   0.6760 
 19 C50      6.0360    11.2260    18.3680 C.2   1 Q101   0.6950 
 20 F1       5.2080    10.9330    21.2660 F     1 Q101  -0.1400 
 21 O1       4.2200    11.2050    14.5380 O.2   1 Q101  -0.5930 
 22 CL1      1.0640    12.7120     9.5460 Cl    1 Q101  -0.0550 
 23 C1       2.0100    13.2400    10.8970 C.2   1 Q101   0.0330 
 24 C2       3.2290    13.8280    10.8540 C.2   1 Q101  -0.1460 
 25 S2       1.3940    13.0300    12.4880 S.3   1 Q101   0.0240 
 26 C3       3.6960    14.1170    12.1390 C.2   1 Q101  -0.1130 
 27 C4       2.8230    13.7440    13.1540 C.2   1 Q101  -0.0920 
 28 C5       3.0910    13.9410    14.5830 C.2   1 Q101   0.0810 
 29 C6       4.2430    13.7060    15.2110 C.2   1 Q101  -0.4200 
 30 O2       6.1260    12.6240    13.7660 O.2   1 Q101  -0.5930 
 31 H142     6.8800     8.1560    18.1470 H     1 Q101   0.0600 
 32 H141     5.1550     8.4160    18.5540 H     1 Q101   0.0600 
 33 H132     5.0020     8.9180    16.2230 H     1 Q101   0.0720 
 34 H131     6.7090     9.3650    16.1460 H     1 Q101   0.0720 
 35 H83      7.6470     6.8900    24.4670 H     1 Q101   0.0490 
 36 H82      7.0720     7.7940    25.9020 H     1 Q101   0.0490 
 37 H81      6.6970     8.3920    24.2730 H     1 Q101   0.0490 
 38 H73      9.6940     9.4000    26.5530 H     1 Q101   0.0490 
 39 H72      9.2880     7.6560    26.6370 H     1 Q101   0.0490 
 40 H71     10.6190     8.2300    25.5920 H     1 Q101   0.0490 
 41 H6       4.6660    14.3410    15.9750 H     1 Q101   0.1940 
 42 H5       2.2500    14.3680    15.1300 H     1 Q101   0.1560 
 43 H3       4.6470    14.6040    12.3320 H     1 Q101   0.1600 
 44 H26      6.5290    10.6670    23.4910 H     1 Q101   0.1600 
 45 H24      9.9180     8.8020    21.5970 H     1 Q101   0.1630 
 46 H21      8.8220     9.0080    19.4320 H     1 Q101   0.1530 
 47 H2       3.7750    14.0560     9.9480 H     1 Q101   0.1720 
 48 H12      4.3700    11.0260    17.0740 H     1 Q101   0.0910 
 49 H1       6.7340    12.4770    16.3380 H     1 Q101   0.4670 
@<TRIPOS>BOND
  1   1   2  am  
  2   1   9  1   
  3   1  49  1   
  4   2  21  2   
  5   2  29  1   
  6   2  30  2   
  7   3  11  1   
  8   3  12  1   
  9   3  19  am  
 10   4   7  1   
 11   4   8  1   
 12   4  18  am  
 13   5  19  2   
 14   6  18  2   
 15   7  38  1   
 16   7  39  1   
 17   7  40  1   
 18   8  35  1   
 19   8  36  1   
 20   8  37  1   
 21   9  10  1   
 22   9  19  1   
 23   9  48  1   
 24  10  11  1   
 25  10  33  1   
 26  10  34  1   
 27  11  31  1   
 28  11  32  1   
 29  12  13  ar  
 30  12  14  ar  
 31  13  15  ar  
 32  13  46  1   
 33  14  16  ar  
 34  14  20  1   
 35  15  17  ar  
 36  15  45  1   
 37  16  17  ar  
 38  16  44  1   
 39  17  18  1   
 40  22  23  1   
 41  23  24  2   
 42  23  25  1   
 43  24  26  1   
 44  24  47  1   
 45  25  27  1   
 46  26  27  2   
 47  26  43  1   
 48  27  28  1   
 49  28  29  2   
 50  28  42  1   
 51  29  41  1   
@<TRIPOS>SUBSTRUCTURE
  1 Q101  19 GROUP 4 **** **** 0

# MOE 2011.10 (io_trps.svl 2011.10)

@<TRIPOS>MOLECULE
FXA101_52
49 51 1 0 0 
SMALL
USER_CHARGES


@<TRIPOS>ATOM
  1 N1       5.1100     7.2690    23.1520 N.am  1 Q101  -0.8960 
  2 S1       5.2890     8.3580    24.3310 S.o2  1 Q101   1.3220 
  3 N2       6.7980     6.1270    20.3750 N.am  1 Q101  -0.3970 
  4 N3       9.2420     1.0830    17.0070 N.am  1 Q101  -0.4840 
  5 O3       4.6170     5.5600    20.8580 O.2   1 Q101  -0.6040 
  6 O4       7.1460     1.2910    16.2990 O.2   1 Q101  -0.6060 
  7 C7       9.5190     0.2810    15.8040 C.3   1 Q101   0.0840 
  8 C8      10.2940     1.1690    18.0330 C.3   1 Q101   0.0840 
  9 C12      5.6610     7.5370    21.8450 C.3   1 Q101   0.1690 
 10 C13      7.1500     7.9000    21.8690 C.3   1 Q101  -0.1080 
 11 C14      7.7440     7.1980    20.6530 C.3   1 Q101   0.1020 
 12 C15      7.1290     5.0030    19.5540 C.ar  1 Q101   0.0330 
 13 C21      7.1290     5.0960    18.1700 C.ar  1 Q101  -0.1060 
 14 C22      7.4350     3.7760    20.1240 C.ar  1 Q101   0.1210 
 15 C24      7.4330     4.0090    17.3770 C.ar  1 Q101  -0.0920 
 16 C26      7.7440     2.6610    19.3600 C.ar  1 Q101  -0.1400 
 17 C27      7.7450     2.7950    17.9710 C.ar  1 Q101  -0.1150 
 18 C28      8.0410     1.6670    17.0380 C.2   1 Q101   0.6760 
 19 C50      5.5930     6.2850    20.9790 C.2   1 Q101   0.6950 
 20 F1       7.4270     3.6760    21.4630 F     1 Q101  -0.1400 
 21 O1       5.1840     9.6190    23.6650 O.2   1 Q101  -0.5930 
 22 CL1      0.0280    10.9500    21.3590 Cl    1 Q101  -0.0550 
 23 C1       0.8060     9.6550    22.2050 C.2   1 Q101   0.0330 
 24 C2       0.8720     8.3570    21.8200 C.2   1 Q101  -0.1460 
 25 S2       1.6000     9.9810    23.6940 S.3   1 Q101   0.0240 
 26 C3       1.5780     7.5900    22.7510 C.2   1 Q101  -0.1130 
 27 C4       2.0450     8.3140    23.8420 C.2   1 Q101  -0.0920 
 28 C5       2.8080     7.7300    24.9510 C.2   1 Q101   0.0810 
 29 C6       3.9620     8.1840    25.4400 C.2   1 Q101  -0.4200 
 30 O2       6.5130     7.9440    24.9570 O.2   1 Q101  -0.5930 
 31 H142     8.7410     6.7940    20.8520 H     1 Q101   0.0600 
 32 H141     7.7800     7.8680    19.7880 H     1 Q101   0.0600 
 33 H132     7.3160     8.9810    21.8510 H     1 Q101   0.0720 
 34 H131     7.6180     7.5100    22.7820 H     1 Q101   0.0720 
 35 H83     10.2440     0.2850    18.6660 H     1 Q101   0.0490 
 36 H82     11.2680     1.2310    17.5410 H     1 Q101   0.0490 
 37 H81     10.1380     2.0690    18.6220 H     1 Q101   0.0490 
 38 H73      9.5300     0.9480    14.9380 H     1 Q101   0.0490 
 39 H72     10.4790    -0.2330    15.8970 H     1 Q101   0.0490 
 40 H71      8.7220    -0.4560    15.6620 H     1 Q101   0.0490 
 41 H6       4.1240     8.4620    26.4720 H     1 Q101   0.1940 
 42 H5       2.3170     6.8760    25.4160 H     1 Q101   0.1560 
 43 H3       1.7620     6.5270    22.6300 H     1 Q101   0.1600 
 44 H26      7.9850     1.7220    19.8400 H     1 Q101   0.1600 
 45 H24      7.3900     4.1030    16.3000 H     1 Q101   0.1630 
 46 H21      6.8730     6.0360    17.6880 H     1 Q101   0.1530 
 47 H2       0.4450     7.9590    20.9100 H     1 Q101   0.1720 
 48 H12      5.1150     8.3230    21.3090 H     1 Q101   0.0910 
 49 H1       4.2640     6.6930    23.1860 H     1 Q101   0.4670 
@<TRIPOS>BOND
  1   1   2  am  
  2   1   9  1   
  3   1  49  1   
  4   2  21  2   
  5   2  29  1   
  6   2  30  2   
  7   3  11  1   
  8   3  12  1   
  9   3  19  am  
 10   4   7  1   
 11   4   8  1   
 12   4  18  am  
 13   5  19  2   
 14   6  18  2   
 15   7  38  1   
 16   7  39  1   
 17   7  40  1   
 18   8  35  1   
 19   8  36  1   
 20   8  37  1   
 21   9  10  1   
 22   9  19  1   
 23   9  48  1   
 24  10  11  1   
 25  10  33  1   
 26  10  34  1   
 27  11  31  1   
 28  11  32  1   
 29  12  13  ar  
 30  12  14  ar  
 31  13  15  ar  
 32  13  46  1   
 33  14  16  ar  
 34  14  20  1   
 35  15  17  ar  
 36  15  45  1   
 37  16  17  ar  
 38  16  44  1   
 39  17  18  1   
 40  22  23  1   
 41  23  24  2   
 42  23  25  1   
 43  24  26  1   
 44  24  47  1   
 45  25  27  1   
 46  26  27  2   
 47  26  43  1   
 48  27  28  1   
 49  28  29  2   
 50  28  42  1   
 51  29  41  1   
@<TRIPOS>SUBSTRUCTURE
  1 Q101  19 GROUP 4 **** **** 0

# MOE 2011.10 (io_trps.svl 2011.10)

@<TRIPOS>MOLECULE
FXA101_53
49 51 1 0 0 
SMALL
USER_CHARGES


@<TRIPOS>ATOM
  1 N1       3.6290    13.3060    15.6780 N.am  1 Q101  -0.8960 
  2 S1       3.4190    13.6510    14.1140 S.o2  1 Q101   1.3220 
  3 N2       5.1800    11.0430    17.7600 N.am  1 Q101  -0.3970 
  4 N3       7.6200     8.9300    23.4410 N.am  1 Q101  -0.4840 
  5 O3       3.4950    12.4550    18.4500 O.2   1 Q101  -0.6040 
  6 O4       8.4090    10.9960    23.2160 O.2   1 Q101  -0.6060 
  7 C7       6.5780     8.8800    24.4790 C.3   1 Q101   0.0840 
  8 C8       8.4340     7.7230    23.2250 C.3   1 Q101   0.0840 
  9 C12      3.8250    11.9340    16.0850 C.3   1 Q101   0.1690 
 10 C13      5.0390    11.2680    15.4300 C.3   1 Q101  -0.1080 
 11 C14      5.6650    10.4240    16.5350 C.3   1 Q101   0.1020 
 12 C15      5.7940    10.8120    19.0320 C.ar  1 Q101   0.0330 
 13 C21      7.1100    11.1790    19.2740 C.ar  1 Q101  -0.1060 
 14 C22      5.0950    10.1860    20.0540 C.ar  1 Q101   0.1210 
 15 C24      7.7080    10.9430    20.4950 C.ar  1 Q101  -0.0920 
 16 C26      5.6620     9.9310    21.2920 C.ar  1 Q101  -0.1400 
 17 C27      6.9840    10.3240    21.5030 C.ar  1 Q101  -0.1150 
 18 C28      7.7150    10.0890    22.7840 C.2   1 Q101   0.6760 
 19 C50      4.1180    11.8660    17.5790 C.2   1 Q101   0.6950 
 20 F1       3.8240     9.8200    19.8220 F     1 Q101  -0.1400 
 21 O1       2.9950    12.4140    13.5340 O.2   1 Q101  -0.5930 
 22 CL1      3.3280    20.5840    16.7350 Cl    1 Q101  -0.0550 
 23 C1       3.2260    18.8980    16.3560 C.2   1 Q101   0.0330 
 24 C2       4.1830    17.9600    16.5580 C.2   1 Q101  -0.1460 
 25 S2       1.7850    18.2800    15.6500 S.3   1 Q101   0.0240 
 26 C3       3.7560    16.7010    16.1280 C.2   1 Q101  -0.1130 
 27 C4       2.4700    16.6910    15.6000 C.2   1 Q101  -0.0920 
 28 C5       1.8030    15.4920    15.0800 C.2   1 Q101   0.0810 
 29 C6       2.1360    14.8160    13.9810 C.2   1 Q101  -0.4200 
 30 O2       4.6720    14.2530    13.7540 O.2   1 Q101  -0.5930 
 31 H142     6.7590    10.4370    16.4990 H     1 Q101   0.0600 
 32 H141     5.3050     9.3910    16.4970 H     1 Q101   0.0600 
 33 H132     4.7660    10.6730    14.5540 H     1 Q101   0.0720 
 34 H131     5.7560    12.0300    15.1000 H     1 Q101   0.0720 
 35 H83      9.2340     7.6980    23.9620 H     1 Q101   0.0490 
 36 H82      7.7960     6.8400    23.3240 H     1 Q101   0.0490 
 37 H81      8.8430     7.7500    22.2180 H     1 Q101   0.0490 
 38 H73      5.6030     8.9880    23.9970 H     1 Q101   0.0490 
 39 H72      6.6270     7.9360    25.0270 H     1 Q101   0.0490 
 40 H71      6.7130     9.7150    25.1750 H     1 Q101   0.0490 
 41 H6       1.6560    14.9340    13.0200 H     1 Q101   0.1940 
 42 H5       0.9970    15.1310    15.7180 H     1 Q101   0.1560 
 43 H3       4.3620    15.8040    16.2130 H     1 Q101   0.1600 
 44 H26      5.0830     9.4480    22.0670 H     1 Q101   0.1600 
 45 H24      8.7470    11.2080    20.6420 H     1 Q101   0.1630 
 46 H21      7.6970    11.6520    18.4900 H     1 Q101   0.1530 
 47 H2       5.1510    18.1500    17.0020 H     1 Q101   0.1720 
 48 H12      2.9410    11.3100    15.9070 H     1 Q101   0.0910 
 49 H1       3.1640    13.9240    16.3480 H     1 Q101   0.4670 
@<TRIPOS>BOND
  1   1   2  am  
  2   1   9  1   
  3   1  49  1   
  4   2  21  2   
  5   2  29  1   
  6   2  30  2   
  7   3  11  1   
  8   3  12  1   
  9   3  19  am  
 10   4   7  1   
 11   4   8  1   
 12   4  18  am  
 13   5  19  2   
 14   6  18  2   
 15   7  38  1   
 16   7  39  1   
 17   7  40  1   
 18   8  35  1   
 19   8  36  1   
 20   8  37  1   
 21   9  10  1   
 22   9  19  1   
 23   9  48  1   
 24  10  11  1   
 25  10  33  1   
 26  10  34  1   
 27  11  31  1   
 28  11  32  1   
 29  12  13  ar  
 30  12  14  ar  
 31  13  15  ar  
 32  13  46  1   
 33  14  16  ar  
 34  14  20  1   
 35  15  17  ar  
 36  15  45  1   
 37  16  17  ar  
 38  16  44  1   
 39  17  18  1   
 40  22  23  1   
 41  23  24  2   
 42  23  25  1   
 43  24  26  1   
 44  24  47  1   
 45  25  27  1   
 46  26  27  2   
 47  26  43  1   
 48  27  28  1   
 49  28  29  2   
 50  28  42  1   
 51  29  41  1   
@<TRIPOS>SUBSTRUCTURE
  1 Q101  19 GROUP 4 **** **** 0

# MOE 2011.10 (io_trps.svl 2011.10)

@<TRIPOS>MOLECULE
FXA101_54
49 51 1 0 0 
SMALL
USER_CHARGES


@<TRIPOS>ATOM
  1 N1       2.5280    10.5270    22.1280 N.am  1 Q101  -0.8960 
  2 S1       1.0720    10.4900    21.4290 S.o2  1 Q101   1.3220 
  3 N2       5.5780     9.0600    22.7670 N.am  1 Q101  -0.3970 
  4 N3      10.9620     8.0730    26.3550 N.am  1 Q101  -0.4840 
  5 O3       4.0840     9.6550    24.4180 O.2   1 Q101  -0.6040 
  6 O4      10.9520    10.2470    25.8920 O.2   1 Q101  -0.6060 
  7 C7      12.2640     7.6790    25.7960 C.3   1 Q101   0.0840 
  8 C8      10.4070     7.2590    27.4500 C.3   1 Q101   0.0840 
  9 C12      3.3600     9.3470    22.1040 C.3   1 Q101   0.1690 
 10 C13      4.2370     9.2420    20.8520 C.3   1 Q101  -0.1080 
 11 C14      5.5750     8.7090    21.3540 C.3   1 Q101   0.1020 
 12 C15      6.7750     9.0800    23.5500 C.ar  1 Q101   0.0330 
 13 C21      7.7620    10.0310    23.3330 C.ar  1 Q101  -0.1060 
 14 C22      6.9940     8.1270    24.5340 C.ar  1 Q101   0.1210 
 15 C24      8.9240    10.0410    24.0770 C.ar  1 Q101  -0.0920 
 16 C26      8.1490     8.1050    25.3000 C.ar  1 Q101  -0.1400 
 17 C27      9.1150     9.0840    25.0620 C.ar  1 Q101  -0.1150 
 18 C28     10.4090     9.1570    25.8040 C.2   1 Q101   0.6760 
 19 C50      4.3550     9.3830    23.2580 C.2   1 Q101   0.6950 
 20 F1       6.0470     7.1980    24.7420 F     1 Q101  -0.1400 
 21 O1       0.4120     9.3820    22.0470 O.2   1 Q101  -0.5930 
 22 CL1     -4.0440    15.3490    25.5890 Cl    1 Q101  -0.0550 
 23 C1      -2.9130    14.6100    24.5070 C.2   1 Q101   0.0330 
 24 C2      -2.3010    15.1940    23.4480 C.2   1 Q101  -0.1460 
 25 S2      -2.4710    12.9660    24.7470 S.3   1 Q101   0.0240 
 26 C3      -1.4520    14.2940    22.7970 C.2   1 Q101  -0.1130 
 27 C4      -1.4240    13.0280    23.3690 C.2   1 Q101  -0.0920 
 28 C5      -0.6140    11.9140    22.8640 C.2   1 Q101   0.0810 
 29 C6       0.2340    11.9570    21.8360 C.2   1 Q101  -0.4200 
 30 O2       1.3970    10.4790    20.0300 O.2   1 Q101  -0.5930 
 31 H142     6.4250     9.1660    20.8380 H     1 Q101   0.0600 
 32 H141     5.6270     7.6200    21.2630 H     1 Q101   0.0600 
 33 H132     3.7940     8.6000    20.0840 H     1 Q101   0.0720 
 34 H131     4.3820    10.2340    20.4060 H     1 Q101   0.0720 
 35 H83      9.9110     6.3880    27.0260 H     1 Q101   0.0490 
 36 H82     11.2210     6.9500    28.1120 H     1 Q101   0.0490 
 37 H81      9.7030     7.8630    28.0150 H     1 Q101   0.0490 
 38 H73     12.9860     8.4740    26.0040 H     1 Q101   0.0490 
 39 H72     12.6020     6.7370    26.2360 H     1 Q101   0.0490 
 40 H71     12.1790     7.5650    24.7100 H     1 Q101   0.0490 
 41 H6       0.4240    12.8330    21.2340 H     1 Q101   0.1940 
 42 H5      -0.7130    11.0020    23.4510 H     1 Q101   0.1560 
 43 H3      -0.8530    14.5600    21.9320 H     1 Q101   0.1600 
 44 H26      8.2820     7.3510    26.0650 H     1 Q101   0.1600 
 45 H24      9.6910    10.7730    23.8610 H     1 Q101   0.1630 
 46 H21      7.6350    10.7800    22.5560 H     1 Q101   0.1530 
 47 H2      -2.4390    16.2220    23.1430 H     1 Q101   0.1720 
 48 H12      2.7840     8.4210    22.2100 H     1 Q101   0.0910 
 49 H1       2.6310    11.1470    22.9360 H     1 Q101   0.4670 
@<TRIPOS>BOND
  1   1   2  am  
  2   1   9  1   
  3   1  49  1   
  4   2  21  2   
  5   2  29  1   
  6   2  30  2   
  7   3  11  1   
  8   3  12  1   
  9   3  19  am  
 10   4   7  1   
 11   4   8  1   
 12   4  18  am  
 13   5  19  2   
 14   6  18  2   
 15   7  38  1   
 16   7  39  1   
 17   7  40  1   
 18   8  35  1   
 19   8  36  1   
 20   8  37  1   
 21   9  10  1   
 22   9  19  1   
 23   9  48  1   
 24  10  11  1   
 25  10  33  1   
 26  10  34  1   
 27  11  31  1   
 28  11  32  1   
 29  12  13  ar  
 30  12  14  ar  
 31  13  15  ar  
 32  13  46  1   
 33  14  16  ar  
 34  14  20  1   
 35  15  17  ar  
 36  15  45  1   
 37  16  17  ar  
 38  16  44  1   
 39  17  18  1   
 40  22  23  1   
 41  23  24  2   
 42  23  25  1   
 43  24  26  1   
 44  24  47  1   
 45  25  27  1   
 46  26  27  2   
 47  26  43  1   
 48  27  28  1   
 49  28  29  2   
 50  28  42  1   
 51  29  41  1   
@<TRIPOS>SUBSTRUCTURE
  1 Q101   5 GROUP 4 **** **** 0

# MOE 2011.10 (io_trps.svl 2011.10)

@<TRIPOS>MOLECULE
FXA101_55
49 51 1 0 0 
SMALL
USER_CHARGES


@<TRIPOS>ATOM
  1 N1       2.2410    10.5210    12.9580 N.am  1 Q101  -0.8960 
  2 S1       2.5810     9.7170    11.5990 S.o2  1 Q101   1.3220 
  3 N2       4.1760    11.6290    15.5830 N.am  1 Q101  -0.3970 
  4 N3       7.6510     9.2370    20.5880 N.am  1 Q101  -0.4840 
  5 O3       4.6600     9.7380    14.3580 O.2   1 Q101  -0.6040 
  6 O4       6.7410    11.1170    21.3450 O.2   1 Q101  -0.6060 
  7 C7       7.1910     8.0490    19.8510 C.3   1 Q101   0.0840 
  8 C8       8.8650     9.1070    21.4120 C.3   1 Q101   0.0840 
  9 C12      3.1900    11.4800    13.4750 C.3   1 Q101   0.1690 
 10 C13      2.5380    12.6360    14.2400 C.3   1 Q101  -0.1080 
 11 C14      3.4590    12.8870    15.4290 C.3   1 Q101   0.1020 
 12 C15      4.8740    11.2860    16.7840 C.ar  1 Q101   0.0330 
 13 C21      4.2170    11.2150    18.0040 C.ar  1 Q101  -0.1060 
 14 C22      6.2390    11.0390    16.7650 C.ar  1 Q101   0.1210 
 15 C24      4.8920    10.9000    19.1660 C.ar  1 Q101  -0.0920 
 16 C26      6.9500    10.7210    17.9100 C.ar  1 Q101  -0.1400 
 17 C27      6.2550    10.6480    19.1180 C.ar  1 Q101  -0.1150 
 18 C28      6.9080    10.3340    20.4240 C.2   1 Q101   0.6760 
 19 C50      4.1000    10.8150    14.5000 C.2   1 Q101   0.6950 
 20 F1       6.8820    11.1160    15.5880 F     1 Q101  -0.1400 
 21 O1       3.5180    10.5560    10.9180 O.2   1 Q101  -0.5930 
 22 CL1     -2.5050     6.1690    14.1080 Cl    1 Q101  -0.0550 
 23 C1      -0.9360     6.3830    13.4070 C.2   1 Q101   0.0330 
 24 C2      -0.5200     5.9380    12.1970 C.2   1 Q101  -0.1460 
 25 S2       0.2650     7.2460    14.2830 S.3   1 Q101   0.0240 
 26 C3       0.8110     6.2920    11.9600 C.2   1 Q101  -0.1130 
 27 C4       1.3990     7.0070    12.9960 C.2   1 Q101  -0.0920 
 28 C5       2.7860     7.4860    12.9830 C.2   1 Q101   0.0810 
 29 C6       3.3580     8.2230    12.0310 C.2   1 Q101  -0.4200 
 30 O2       1.2790     9.4570    11.0540 O.2   1 Q101  -0.5930 
 31 H142     2.9050    13.1340    16.3400 H     1 Q101   0.0600 
 32 H141     4.1830    13.6780    15.2090 H     1 Q101   0.0600 
 33 H132     2.4060    13.5260    13.6180 H     1 Q101   0.0720 
 34 H131     1.5460    12.3380    14.6020 H     1 Q101   0.0720 
 35 H83      8.5960     8.6710    22.3710 H     1 Q101   0.0490 
 36 H82      9.5830     8.4680    20.8900 H     1 Q101   0.0490 
 37 H81      9.3030    10.0920    21.5490 H     1 Q101   0.0490 
 38 H73      7.2640     8.2560    18.7800 H     1 Q101   0.0490 
 39 H72      7.7960     7.1770    20.1090 H     1 Q101   0.0490 
 40 H71      6.1410     7.8510    20.0920 H     1 Q101   0.0490 
 41 H6       4.2740     7.9620    11.5220 H     1 Q101   0.1940 
 42 H5       3.3440     7.2300    13.8830 H     1 Q101   0.1560 
 43 H3       1.3390     6.0480    11.0430 H     1 Q101   0.1600 
 44 H26      8.0130    10.5270    17.8560 H     1 Q101   0.1600 
 45 H24      4.3590    10.8870    20.1070 H     1 Q101   0.1630 
 46 H21      3.1510    11.4240    18.0620 H     1 Q101   0.1530 
 47 H2      -1.1320     5.3880    11.4960 H     1 Q101   0.1720 
 48 H12      3.8400    11.8940    12.6950 H     1 Q101   0.0910 
 49 H1       1.6580    10.0340    13.6430 H     1 Q101   0.4670 
@<TRIPOS>BOND
  1   1   2  am  
  2   1   9  1   
  3   1  49  1   
  4   2  21  2   
  5   2  29  1   
  6   2  30  2   
  7   3  11  1   
  8   3  12  1   
  9   3  19  am  
 10   4   7  1   
 11   4   8  1   
 12   4  18  am  
 13   5  19  2   
 14   6  18  2   
 15   7  38  1   
 16   7  39  1   
 17   7  40  1   
 18   8  35  1   
 19   8  36  1   
 20   8  37  1   
 21   9  10  1   
 22   9  19  1   
 23   9  48  1   
 24  10  11  1   
 25  10  33  1   
 26  10  34  1   
 27  11  31  1   
 28  11  32  1   
 29  12  13  ar  
 30  12  14  ar  
 31  13  15  ar  
 32  13  46  1   
 33  14  16  ar  
 34  14  20  1   
 35  15  17  ar  
 36  15  45  1   
 37  16  17  ar  
 38  16  44  1   
 39  17  18  1   
 40  22  23  1   
 41  23  24  2   
 42  23  25  1   
 43  24  26  1   
 44  24  47  1   
 45  25  27  1   
 46  26  27  2   
 47  26  43  1   
 48  27  28  1   
 49  28  29  2   
 50  28  42  1   
 51  29  41  1   
@<TRIPOS>SUBSTRUCTURE
  1 Q101   5 GROUP 4 **** **** 0

# MOE 2011.10 (io_trps.svl 2011.10)

@<TRIPOS>MOLECULE
FXA101_56
49 51 1 0 0 
SMALL
USER_CHARGES


@<TRIPOS>ATOM
  1 N1       3.0730     9.1230    21.3560 N.am  1 Q101  -0.8960 
  2 S1       3.0070     9.5630    22.9090 S.o2  1 Q101   1.3220 
  3 N2       1.8600     7.2990    18.6980 N.am  1 Q101  -0.3970 
  4 N3       4.4220     4.2630    13.5710 N.am  1 Q101  -0.4840 
  5 O3       3.7380     6.7050    19.8930 O.2   1 Q101  -0.6040 
  6 O4       2.2400     4.1170    13.1740 O.2   1 Q101  -0.6060 
  7 C7       5.4200     5.0630    14.2980 C.3   1 Q101   0.0840 
  8 C8       4.9100     3.2730    12.5970 C.3   1 Q101   0.0840 
  9 C12      2.0700     8.2280    20.8270 C.3   1 Q101   0.1690 
 10 C13      0.9360     8.9470    20.0870 C.3   1 Q101  -0.1080 
 11 C14      0.6360     8.0650    18.8800 C.3   1 Q101   0.1020 
 12 C15      2.1630     6.6150    17.4780 C.ar  1 Q101   0.0330 
 13 C21      2.4620     5.2600    17.4670 C.ar  1 Q101  -0.1060 
 14 C22      2.1930     7.2980    16.2710 C.ar  1 Q101   0.1210 
 15 C24      2.7710     4.6020    16.2940 C.ar  1 Q101  -0.0920 
 16 C26      2.5000     6.6720    15.0740 C.ar  1 Q101  -0.1400 
 17 C27      2.7840     5.3060    15.0990 C.ar  1 Q101  -0.1150 
 18 C28      3.1480     4.5210    13.8820 C.2   1 Q101   0.6760 
 19 C50      2.6850     7.3140    19.7740 C.2   1 Q101   0.6950 
 20 F1       1.9140     8.6110    16.2760 F     1 Q101  -0.1400 
 21 O1       1.6940    10.1080    23.0660 O.2   1 Q101  -0.5930 
 22 CL1      9.6350     9.2520    23.6990 Cl    1 Q101  -0.0550 
 23 C1       7.9950     8.7060    23.5890 C.2   1 Q101   0.0330 
 24 C2       7.4090     8.1050    22.5260 C.2   1 Q101  -0.1460 
 25 S2       6.9480     8.9130    24.9370 S.3   1 Q101   0.0240 
 26 C3       6.0700     7.8030    22.7910 C.2   1 Q101  -0.1130 
 27 C4       5.6480     8.1780    24.0600 C.2   1 Q101  -0.0920 
 28 C5       4.2870     7.9700    24.5700 C.2   1 Q101   0.0810 
 29 C6       3.1550     8.1330    23.8870 C.2   1 Q101  -0.4200 
 30 O2       4.1780    10.3820    23.0520 O.2   1 Q101  -0.5930 
 31 H142     0.4060     8.6510    17.9850 H     1 Q101   0.0600 
 32 H141    -0.1850     7.3720    19.0910 H     1 Q101   0.0600 
 33 H132     0.0580     9.1020    20.7210 H     1 Q101   0.0720 
 34 H131     1.2740     9.9330    19.7460 H     1 Q101   0.0720 
 35 H83      5.1250     3.7780    11.6570 H     1 Q101   0.0490 
 36 H82      5.8140     2.8010    12.9910 H     1 Q101   0.0490 
 37 H81      4.1470     2.5120    12.4560 H     1 Q101   0.0490 
 38 H73      5.3560     4.8140    15.3610 H     1 Q101   0.0490 
 39 H72      6.4260     4.8570    13.9220 H     1 Q101   0.0490 
 40 H71      5.1960     6.1280    14.1800 H     1 Q101   0.0490 
 41 H6       2.3310     7.4340    23.8890 H     1 Q101   0.1940 
 42 H5       4.2570     7.6000    25.5940 H     1 Q101   0.1560 
 43 H3       5.4200     7.3050    22.0790 H     1 Q101   0.1600 
 44 H26      2.5060     7.2350    14.1500 H     1 Q101   0.1600 
 45 H24      3.0340     3.5540    16.3220 H     1 Q101   0.1630 
 46 H21      2.4700     4.6960    18.3970 H     1 Q101   0.1530 
 47 H2       7.9050     7.8780    21.5920 H     1 Q101   0.1720 
 48 H12      1.6340     7.5780    21.5950 H     1 Q101   0.0910 
 49 H1       4.0040     9.0730    20.9340 H     1 Q101   0.4670 
@<TRIPOS>BOND
  1   1   2  am  
  2   1   9  1   
  3   1  49  1   
  4   2  21  2   
  5   2  29  1   
  6   2  30  2   
  7   3  11  1   
  8   3  12  1   
  9   3  19  am  
 10   4   7  1   
 11   4   8  1   
 12   4  18  am  
 13   5  19  2   
 14   6  18  2   
 15   7  38  1   
 16   7  39  1   
 17   7  40  1   
 18   8  35  1   
 19   8  36  1   
 20   8  37  1   
 21   9  10  1   
 22   9  19  1   
 23   9  48  1   
 24  10  11  1   
 25  10  33  1   
 26  10  34  1   
 27  11  31  1   
 28  11  32  1   
 29  12  13  ar  
 30  12  14  ar  
 31  13  15  ar  
 32  13  46  1   
 33  14  16  ar  
 34  14  20  1   
 35  15  17  ar  
 36  15  45  1   
 37  16  17  ar  
 38  16  44  1   
 39  17  18  1   
 40  22  23  1   
 41  23  24  2   
 42  23  25  1   
 43  24  26  1   
 44  24  47  1   
 45  25  27  1   
 46  26  27  2   
 47  26  43  1   
 48  27  28  1   
 49  28  29  2   
 50  28  42  1   
 51  29  41  1   
@<TRIPOS>SUBSTRUCTURE
  1 Q101   5 GROUP 4 **** **** 0

# MOE 2011.10 (io_trps.svl 2011.10)

@<TRIPOS>MOLECULE
FXA101_57
49 51 1 0 0 
SMALL
USER_CHARGES


@<TRIPOS>ATOM
  1 N1       5.8920    10.3790    20.0700 N.am  1 Q101  -0.8960 
  2 S1       6.5020     8.9580    19.6020 S.o2  1 Q101   1.3220 
  3 N2       4.1950    13.2200    19.1140 N.am  1 Q101  -0.3970 
  4 N3       3.7100    19.7310    18.8540 N.am  1 Q101  -0.4840 
  5 O3       6.3010    12.6820    18.3510 O.2   1 Q101  -0.6040 
  6 O4       5.1840    19.2060    17.2760 O.2   1 Q101  -0.6060 
  7 C7       2.7780    20.5250    18.0380 C.3   1 Q101   0.0840 
  8 C8       3.7350    19.9780    20.3050 C.3   1 Q101   0.0840 
  9 C12      4.8260    10.9830    19.3050 C.3   1 Q101   0.1690 
 10 C13      3.5400    11.2000    20.1100 C.3   1 Q101  -0.1080 
 11 C14      3.0150    12.5560    19.6510 C.3   1 Q101   0.1020 
 12 C15      4.2510    14.6340    18.9050 C.ar  1 Q101   0.0330 
 13 C21      3.7090    15.2170    17.7680 C.ar  1 Q101  -0.1060 
 14 C22      4.8770    15.4620    19.8250 C.ar  1 Q101   0.1210 
 15 C24      3.7780    16.5790    17.5570 C.ar  1 Q101  -0.0920 
 16 C26      4.9660    16.8340    19.6470 C.ar  1 Q101  -0.1400 
 17 C27      4.4010    17.3860    18.4980 C.ar  1 Q101  -0.1150 
 18 C28      4.4470    18.8440    18.1790 C.2   1 Q101   0.6760 
 19 C50      5.2300    12.3820    18.8560 C.2   1 Q101   0.6950 
 20 F1       5.4130    14.9040    20.9230 F     1 Q101  -0.1400 
 21 O1       7.2930     9.2760    18.4540 O.2   1 Q101  -0.5930 
 22 CL1      3.7120     9.4020    25.7060 Cl    1 Q101  -0.0550 
 23 C1       4.5350     8.4500    24.5170 C.2   1 Q101   0.0330 
 24 C2       4.3010     7.1500    24.2140 C.2   1 Q101  -0.1460 
 25 S2       5.7880     9.1680    23.5850 S.3   1 Q101   0.0240 
 26 C3       5.1580     6.7060    23.2030 C.2   1 Q101  -0.1130 
 27 C4       6.0410     7.6760    22.7440 C.2   1 Q101  -0.0920 
 28 C5       7.0380     7.4490    21.6920 C.2   1 Q101   0.0810 
 29 C6       7.5380     8.3680    20.8670 C.2   1 Q101  -0.4200 
 30 O2       5.3310     8.1340    19.4970 O.2   1 Q101  -0.5930 
 31 H142     2.5830    13.1350    20.4730 H     1 Q101   0.0600 
 32 H141     2.2800    12.4450    18.8480 H     1 Q101   0.0600 
 33 H132     2.8120    10.3980    19.9580 H     1 Q101   0.0720 
 34 H131     3.7680    11.2400    21.1820 H     1 Q101   0.0720 
 35 H83      4.3650    20.8410    20.5060 H     1 Q101   0.0490 
 36 H82      2.7140    20.1620    20.6540 H     1 Q101   0.0490 
 37 H81      4.1240    19.0950    20.8050 H     1 Q101   0.0490 
 38 H73      2.0380    19.8500    17.6000 H     1 Q101   0.0490 
 39 H72      2.2830    21.2850    18.6480 H     1 Q101   0.0490 
 40 H71      3.3260    21.0110    17.2230 H     1 Q101   0.0490 
 41 H6       8.5350     8.7790    20.9380 H     1 Q101   0.1940 
 42 H5       7.4090     6.4250    21.6560 H     1 Q101   0.1560 
 43 H3       5.1300     5.6990    22.7980 H     1 Q101   0.1600 
 44 H26      5.4560    17.4490    20.3900 H     1 Q101   0.1600 
 45 H24      3.3780    17.0000    16.6440 H     1 Q101   0.1630 
 46 H21      3.2300    14.5970    17.0140 H     1 Q101   0.1530 
 47 H2       3.5470     6.5320    24.6800 H     1 Q101   0.1720 
 48 H12      4.5830    10.4170    18.3980 H     1 Q101   0.0910 
 49 H1       6.5320    11.0160    20.5500 H     1 Q101   0.4670 
@<TRIPOS>BOND
  1   1   2  am  
  2   1   9  1   
  3   1  49  1   
  4   2  21  2   
  5   2  29  1   
  6   2  30  2   
  7   3  11  1   
  8   3  12  1   
  9   3  19  am  
 10   4   7  1   
 11   4   8  1   
 12   4  18  am  
 13   5  19  2   
 14   6  18  2   
 15   7  38  1   
 16   7  39  1   
 17   7  40  1   
 18   8  35  1   
 19   8  36  1   
 20   8  37  1   
 21   9  10  1   
 22   9  19  1   
 23   9  48  1   
 24  10  11  1   
 25  10  33  1   
 26  10  34  1   
 27  11  31  1   
 28  11  32  1   
 29  12  13  ar  
 30  12  14  ar  
 31  13  15  ar  
 32  13  46  1   
 33  14  16  ar  
 34  14  20  1   
 35  15  17  ar  
 36  15  45  1   
 37  16  17  ar  
 38  16  44  1   
 39  17  18  1   
 40  22  23  1   
 41  23  24  2   
 42  23  25  1   
 43  24  26  1   
 44  24  47  1   
 45  25  27  1   
 46  26  27  2   
 47  26  43  1   
 48  27  28  1   
 49  28  29  2   
 50  28  42  1   
 51  29  41  1   
@<TRIPOS>SUBSTRUCTURE
  1 Q101   3 GROUP 4 **** **** 0

# MOE 2011.10 (io_trps.svl 2011.10)

@<TRIPOS>MOLECULE
FXA101_58
49 51 1 0 0 
SMALL
USER_CHARGES


@<TRIPOS>ATOM
  1 N1       6.6880     9.5290    22.9650 N.am  1 Q101  -0.8960 
  2 S1       7.1900     8.6940    24.2530 S.o2  1 Q101   1.3220 
  3 N2       6.6530     9.7270    19.5260 N.am  1 Q101  -0.3970 
  4 N3       4.2420    13.5080    14.8510 N.am  1 Q101  -0.4840 
  5 O3       6.6180    11.5730    20.9040 O.2   1 Q101  -0.6040 
  6 O4       3.9810    11.4780    13.9870 O.2   1 Q101  -0.6060 
  7 C7       4.3050    14.0720    13.4940 C.3   1 Q101   0.0840 
  8 C8       4.0770    14.4430    15.9770 C.3   1 Q101   0.0840 
  9 C12      7.3960     9.4020    21.7120 C.3   1 Q101   0.1690 
 10 C13      7.2210     8.0330    21.0450 C.3   1 Q101  -0.1080 
 11 C14      7.0870     8.3380    19.5570 C.3   1 Q101   0.1020 
 12 C15      6.0580    10.3190    18.3680 C.ar  1 Q101   0.0330 
 13 C21      6.8180    11.0360    17.4540 C.ar  1 Q101  -0.1060 
 14 C22      4.6930    10.2160    18.1400 C.ar  1 Q101   0.1210 
 15 C24      6.2430    11.6220    16.3450 C.ar  1 Q101  -0.0920 
 16 C26      4.0810    10.7920    17.0380 C.ar  1 Q101  -0.1400 
 17 C27      4.8780    11.4960    16.1350 C.ar  1 Q101  -0.1150 
 18 C28      4.3370    12.1780    14.9220 C.2   1 Q101   0.6760 
 19 C50      6.8440    10.3910    20.6940 C.2   1 Q101   0.6950 
 20 F1       3.9510     9.5320    19.0260 F     1 Q101  -0.1400 
 21 O1       7.3310     9.6800    25.2790 O.2   1 Q101  -0.5930 
 22 CL1      1.2560     3.7480    23.1720 Cl    1 Q101  -0.0550 
 23 C1       1.9700     5.2640    23.6060 C.2   1 Q101   0.0330 
 24 C2       1.3210     6.4290    23.8460 C.2   1 Q101  -0.1460 
 25 S2       3.6780     5.3720    23.7710 S.3   1 Q101   0.0240 
 26 C3       2.2190     7.4500    24.1680 C.2   1 Q101  -0.1130 
 27 C4       3.5510     7.0520    24.1700 C.2   1 Q101  -0.0920 
 28 C5       4.6760     7.9440    24.4730 C.2   1 Q101   0.0810 
 29 C6       5.9370     7.5760    24.7000 C.2   1 Q101  -0.4200 
 30 O2       8.3270     7.9820    23.7400 O.2   1 Q101  -0.5930 
 31 H142     6.3560     7.6900    19.0650 H     1 Q101   0.0600 
 32 H141     8.0530     8.2610    19.0480 H     1 Q101   0.0600 
 33 H132     8.0520     7.3550    21.2600 H     1 Q101   0.0720 
 34 H131     6.3030     7.5520    21.4050 H     1 Q101   0.0720 
 35 H83      5.0490    14.8540    16.2410 H     1 Q101   0.0490 
 36 H82      3.3930    15.2430    15.6790 H     1 Q101   0.0490 
 37 H81      3.6480    13.9060    16.8190 H     1 Q101   0.0490 
 38 H73      3.4370    13.7180    12.9310 H     1 Q101   0.0490 
 39 H72      4.3120    15.1640    13.5300 H     1 Q101   0.0490 
 40 H71      5.2100    13.7170    12.9890 H     1 Q101   0.0490 
 41 H6       6.2300     6.6400    25.1520 H     1 Q101   0.1940 
 42 H5       4.4130     9.0010    24.4500 H     1 Q101   0.1560 
 43 H3       1.9090     8.4620    24.4120 H     1 Q101   0.1600 
 44 H26      3.0140    10.6840    16.8890 H     1 Q101   0.1600 
 45 H24      6.8550    12.2040    15.6700 H     1 Q101   0.1630 
 46 H21      7.8870    11.1570    17.6110 H     1 Q101   0.1530 
 47 H2       0.2490     6.5600    23.8060 H     1 Q101   0.1720 
 48 H12      8.4680     9.6130    21.8090 H     1 Q101   0.0910 
 49 H1       6.2400    10.4300    23.1510 H     1 Q101   0.4670 
@<TRIPOS>BOND
  1   1   2  am  
  2   1   9  1   
  3   1  49  1   
  4   2  21  2   
  5   2  29  1   
  6   2  30  2   
  7   3  11  1   
  8   3  12  1   
  9   3  19  am  
 10   4   7  1   
 11   4   8  1   
 12   4  18  am  
 13   5  19  2   
 14   6  18  2   
 15   7  38  1   
 16   7  39  1   
 17   7  40  1   
 18   8  35  1   
 19   8  36  1   
 20   8  37  1   
 21   9  10  1   
 22   9  19  1   
 23   9  48  1   
 24  10  11  1   
 25  10  33  1   
 26  10  34  1   
 27  11  31  1   
 28  11  32  1   
 29  12  13  ar  
 30  12  14  ar  
 31  13  15  ar  
 32  13  46  1   
 33  14  16  ar  
 34  14  20  1   
 35  15  17  ar  
 36  15  45  1   
 37  16  17  ar  
 38  16  44  1   
 39  17  18  1   
 40  22  23  1   
 41  23  24  2   
 42  23  25  1   
 43  24  26  1   
 44  24  47  1   
 45  25  27  1   
 46  26  27  2   
 47  26  43  1   
 48  27  28  1   
 49  28  29  2   
 50  28  42  1   
 51  29  41  1   
@<TRIPOS>SUBSTRUCTURE
  1 Q101  20 GROUP 4 **** **** 0

# MOE 2011.10 (io_trps.svl 2011.10)

@<TRIPOS>MOLECULE
FXA101_59
49 51 1 0 0 
SMALL
USER_CHARGES


@<TRIPOS>ATOM
  1 N1       4.3880     6.3380    17.3460 N.am  1 Q101  -0.8960 
  2 S1       3.5220     6.0810    16.0080 S.o2  1 Q101   1.3220 
  3 N2       6.5000     8.5060    18.9920 N.am  1 Q101  -0.3970 
  4 N3       9.0790     9.0250    24.9320 N.am  1 Q101  -0.4840 
  5 O3       6.5620     6.2190    19.2660 O.2   1 Q101  -0.6040 
  6 O4       9.3800    11.0540    24.0770 O.2   1 Q101  -0.6060 
  7 C7      10.2280     9.2440    25.8250 C.3   1 Q101   0.0840 
  8 C8       8.2110     7.8660    25.2010 C.3   1 Q101   0.0840 
  9 C12      5.5210     7.2320    17.3000 C.3   1 Q101   0.1690 
 10 C13      5.1360     8.7010    17.0940 C.3   1 Q101  -0.1080 
 11 C14      6.0800     9.4840    17.9990 C.3   1 Q101   0.1020 
 12 C15      7.0940     8.8820    20.2370 C.ar  1 Q101   0.0330 
 13 C21      8.4680     8.8200    20.4280 C.ar  1 Q101  -0.1060 
 14 C22      6.3080     9.2960    21.3020 C.ar  1 Q101   0.1210 
 15 C24      9.0420     9.1670    21.6340 C.ar  1 Q101  -0.0920 
 16 C26      6.8480     9.6510    22.5280 C.ar  1 Q101  -0.1400 
 17 C27      8.2340     9.5870    22.6800 C.ar  1 Q101  -0.1150 
 18 C28      8.9360     9.9230    23.9540 C.2   1 Q101   0.6760 
 19 C50      6.2540     7.2200    18.6370 C.2   1 Q101   0.6950 
 20 F1       4.9780     9.3490    21.1270 F     1 Q101  -0.1400 
 21 O1       2.4740     7.0530    16.0730 O.2   1 Q101  -0.5930 
 22 CL1     -0.1960     7.8730    10.3750 Cl    1 Q101  -0.0550 
 23 C1       0.8360     7.1570    11.5660 C.2   1 Q101   0.0330 
 24 C2       0.4510     6.4890    12.6800 C.2   1 Q101  -0.1460 
 25 S2       2.5420     7.2640    11.3740 S.3   1 Q101   0.0240 
 26 C3       1.5560     6.0510    13.4140 C.2   1 Q101  -0.1130 
 27 C4       2.7800     6.3900    12.8500 C.2   1 Q101  -0.0920 
 28 C5       4.0800     6.0450    13.4350 C.2   1 Q101   0.0810 
 29 C6       4.5310     6.4160    14.6330 C.2   1 Q101  -0.4200 
 30 O2       3.2400     4.6750    16.0820 O.2   1 Q101  -0.5930 
 31 H142     5.5870    10.3370    18.4760 H     1 Q101   0.0600 
 32 H141     6.9630     9.8260    17.4490 H     1 Q101   0.0600 
 33 H132     5.2100     9.0080    16.0470 H     1 Q101   0.0720 
 34 H131     4.1000     8.8680    17.4130 H     1 Q101   0.0720 
 35 H83      8.6620     6.9780    24.7650 H     1 Q101   0.0490 
 36 H82      8.1000     7.7460    26.2820 H     1 Q101   0.0490 
 37 H81      7.2330     8.0510    24.7650 H     1 Q101   0.0490 
 38 H73     10.0780    10.1880    26.3570 H     1 Q101   0.0490 
 39 H72     10.3260     8.4210    26.5360 H     1 Q101   0.0490 
 40 H71     11.1440     9.3250    25.2310 H     1 Q101   0.0490 
 41 H6       5.4820     6.8980    14.8090 H     1 Q101   0.1940 
 42 H5       4.6760     5.3790    12.8120 H     1 Q101   0.1560 
 43 H3       1.4720     5.4810    14.3350 H     1 Q101   0.1600 
 44 H26      6.2040     9.9770    23.3340 H     1 Q101   0.1600 
 45 H24     10.1110     9.0740    21.7640 H     1 Q101   0.1630 
 46 H21      9.1140     8.4790    19.6230 H     1 Q101   0.1530 
 47 H2      -0.5760     6.3070    12.9680 H     1 Q101   0.1720 
 48 H12      6.2530     6.9480    16.5350 H     1 Q101   0.0910 
 49 H1       4.4380     5.5640    18.0140 H     1 Q101   0.4670 
@<TRIPOS>BOND
  1   1   2  am  
  2   1   9  1   
  3   1  49  1   
  4   2  21  2   
  5   2  29  1   
  6   2  30  2   
  7   3  11  1   
  8   3  12  1   
  9   3  19  am  
 10   4   7  1   
 11   4   8  1   
 12   4  18  am  
 13   5  19  2   
 14   6  18  2   
 15   7  38  1   
 16   7  39  1   
 17   7  40  1   
 18   8  35  1   
 19   8  36  1   
 20   8  37  1   
 21   9  10  1   
 22   9  19  1   
 23   9  48  1   
 24  10  11  1   
 25  10  33  1   
 26  10  34  1   
 27  11  31  1   
 28  11  32  1   
 29  12  13  ar  
 30  12  14  ar  
 31  13  15  ar  
 32  13  46  1   
 33  14  16  ar  
 34  14  20  1   
 35  15  17  ar  
 36  15  45  1   
 37  16  17  ar  
 38  16  44  1   
 39  17  18  1   
 40  22  23  1   
 41  23  24  2   
 42  23  25  1   
 43  24  26  1   
 44  24  47  1   
 45  25  27  1   
 46  26  27  2   
 47  26  43  1   
 48  27  28  1   
 49  28  29  2   
 50  28  42  1   
 51  29  41  1   
@<TRIPOS>SUBSTRUCTURE
  1 Q101  19 GROUP 4 **** **** 0

# MOE 2011.10 (io_trps.svl 2011.10)

@<TRIPOS>MOLECULE
FXA101_60
49 51 1 0 0 
SMALL
USER_CHARGES


@<TRIPOS>ATOM
  1 N1       7.1920    10.0960    21.0480 N.am  1 Q101  -0.8960 
  2 S1       7.6400    10.4990    22.5470 S.o2  1 Q101   1.3220 
  3 N2       4.8460     7.9860    19.6650 N.am  1 Q101  -0.3970 
  4 N3       3.3880     2.2000    16.9670 N.am  1 Q101  -0.4840 
  5 O3       5.9990     7.5070    21.6020 O.2   1 Q101  -0.6040 
  6 O4       3.3440     1.8610    19.1640 O.2   1 Q101  -0.6060 
  7 C7       4.1450     0.9860    16.6220 C.3   1 Q101   0.0840 
  8 C8       2.5600     2.8160    15.9180 C.3   1 Q101   0.0840 
  9 C12      5.8040     9.7990    20.7750 C.3   1 Q101   0.1690 
 10 C13      5.3400    10.2620    19.3900 C.3   1 Q101  -0.1080 
 11 C14      4.4300     9.1460    18.8900 C.3   1 Q101   0.1020 
 12 C15      4.5210     6.6470    19.2790 C.ar  1 Q101   0.0330 
 13 C21      3.4400     5.9790    19.8380 C.ar  1 Q101  -0.1060 
 14 C22      5.2970     5.9680    18.3520 C.ar  1 Q101   0.1210 
 15 C24      3.1350     4.6820    19.4780 C.ar  1 Q101  -0.0920 
 16 C26      5.0220     4.6650    17.9670 C.ar  1 Q101  -0.1400 
 17 C27      3.9210     4.0280    18.5410 C.ar  1 Q101  -0.1150 
 18 C28      3.5310     2.6220    18.2270 C.2   1 Q101   0.6760 
 19 C50      5.5820     8.2920    20.7630 C.2   1 Q101   0.6950 
 20 F1       6.3500     6.6060    17.8150 F     1 Q101  -0.1400 
 21 O1       6.4480    10.3480    23.3240 O.2   1 Q101  -0.5930 
 22 CL1     13.5280     7.2690    26.6100 Cl    1 Q101  -0.0550 
 23 C1      11.8780     7.6660    26.2660 C.2   1 Q101   0.0330 
 24 C2      10.8190     7.5280    27.1000 C.2   1 Q101  -0.1460 
 25 S2      11.4720     8.3130    24.7260 S.3   1 Q101   0.0240 
 26 C3       9.6350     7.9460    26.4860 C.2   1 Q101  -0.1130 
 27 C4       9.8050     8.4020    25.1840 C.2   1 Q101  -0.0920 
 28 C5       8.7130     8.8900    24.3340 C.2   1 Q101   0.0810 
 29 C6       8.8260     9.3490    23.0880 C.2   1 Q101  -0.4200 
 30 O2       8.2490    11.7850    22.3570 O.2   1 Q101  -0.5930 
 31 H142     4.5500     8.9610    17.8180 H     1 Q101   0.0600 
 32 H141     3.3800     9.3590    19.1140 H     1 Q101   0.0600 
 33 H132     4.8340    11.2310    19.4230 H     1 Q101   0.0720 
 34 H131     6.2000    10.3630    18.7170 H     1 Q101   0.0720 
 35 H83      3.1910     3.4420    15.2910 H     1 Q101   0.0490 
 36 H82      2.0930     2.0270    15.3220 H     1 Q101   0.0490 
 37 H81      1.7800     3.4100    16.3890 H     1 Q101   0.0490 
 38 H73      3.7600     0.1560    17.2200 H     1 Q101   0.0490 
 39 H72      4.0460     0.7620    15.5570 H     1 Q101   0.0490 
 40 H71      5.2020     1.1280    16.8700 H     1 Q101   0.0490 
 41 H6       9.6090     9.0670    22.3990 H     1 Q101   0.1940 
 42 H5       7.7290     8.8010    24.7950 H     1 Q101   0.1560 
 43 H3       8.6700     7.9350    26.9820 H     1 Q101   0.1600 
 44 H26      5.6460     4.1700    17.2350 H     1 Q101   0.1600 
 45 H24      2.3080     4.1750    19.9570 H     1 Q101   0.1630 
 46 H21      2.8220     6.4710    20.5840 H     1 Q101   0.1530 
 47 H2      10.8730     7.1510    28.1120 H     1 Q101   0.1720 
 48 H12      5.1270    10.2130    21.5320 H     1 Q101   0.0910 
 49 H1       7.8880     9.6080    20.4790 H     1 Q101   0.4670 
@<TRIPOS>BOND
  1   1   2  am  
  2   1   9  1   
  3   1  49  1   
  4   2  21  2   
  5   2  29  1   
  6   2  30  2   
  7   3  11  1   
  8   3  12  1   
  9   3  19  am  
 10   4   7  1   
 11   4   8  1   
 12   4  18  am  
 13   5  19  2   
 14   6  18  2   
 15   7  38  1   
 16   7  39  1   
 17   7  40  1   
 18   8  35  1   
 19   8  36  1   
 20   8  37  1   
 21   9  10  1   
 22   9  19  1   
 23   9  48  1   
 24  10  11  1   
 25  10  33  1   
 26  10  34  1   
 27  11  31  1   
 28  11  32  1   
 29  12  13  ar  
 30  12  14  ar  
 31  13  15  ar  
 32  13  46  1   
 33  14  16  ar  
 34  14  20  1   
 35  15  17  ar  
 36  15  45  1   
 37  16  17  ar  
 38  16  44  1   
 39  17  18  1   
 40  22  23  1   
 41  23  24  2   
 42  23  25  1   
 43  24  26  1   
 44  24  47  1   
 45  25  27  1   
 46  26  27  2   
 47  26  43  1   
 48  27  28  1   
 49  28  29  2   
 50  28  42  1   
 51  29  41  1   
@<TRIPOS>SUBSTRUCTURE
  1 Q101   5 GROUP 4 **** **** 0

# MOE 2011.10 (io_trps.svl 2011.10)

@<TRIPOS>MOLECULE
FXA101_61
49 51 1 0 0 
SMALL
USER_CHARGES


@<TRIPOS>ATOM
  1 N1      -0.7460     9.8660    13.7720 N.am  1 Q101  -0.8960 
  2 S1      -2.0020     9.5640    12.8030 S.o2  1 Q101   1.3220 
  3 N2       1.5260     8.7680    16.1170 N.am  1 Q101  -0.3970 
  4 N3       5.9530     9.5530    20.7990 N.am  1 Q101  -0.4840 
  5 O3       0.2500    10.6690    16.3780 O.2   1 Q101  -0.6040 
  6 O4       6.4300    11.2060    19.3910 O.2   1 Q101  -0.6060 
  7 C7       7.2680     8.9050    20.9210 C.3   1 Q101   0.0840 
  8 C8       5.0070     9.4070    21.9180 C.3   1 Q101   0.0840 
  9 C12     -0.3950     8.9160    14.8010 C.3   1 Q101   0.1690 
 10 C13      0.4590     7.7490    14.2930 C.3   1 Q101  -0.1080 
 11 C14      1.4820     7.5030    15.3970 C.3   1 Q101   0.1020 
 12 C15      2.6000     9.1130    16.9960 C.ar  1 Q101   0.0330 
 13 C21      2.3640     9.4570    18.3200 C.ar  1 Q101  -0.1060 
 14 C22      3.9090     9.1420    16.5400 C.ar  1 Q101   0.1210 
 15 C24      3.3980     9.8070    19.1650 C.ar  1 Q101  -0.0920 
 16 C26      4.9720     9.4890    17.3580 C.ar  1 Q101  -0.1400 
 17 C27      4.7000     9.8180    18.6860 C.ar  1 Q101  -0.1150 
 18 C28      5.7520    10.2280    19.6630 C.2   1 Q101   0.6760 
 19 C50      0.4740     9.5850    15.8590 C.2   1 Q101   0.6950 
 20 F1       4.1420     8.8200    15.2560 F     1 Q101  -0.1400 
 21 O1      -1.6400     8.3580    12.1230 O.2   1 Q101  -0.5930 
 22 CL1     -5.2570    15.1500    11.6080 Cl    1 Q101  -0.0550 
 23 C1      -4.8180    13.7410    12.5140 C.2   1 Q101   0.0330 
 24 C2      -4.1030    13.7060    13.6650 C.2   1 Q101  -0.1460 
 25 S2      -5.3120    12.1930    11.9540 S.3   1 Q101   0.0240 
 26 C3      -3.9360    12.3940    14.1150 C.2   1 Q101  -0.1130 
 27 C4      -4.5280    11.4370    13.3000 C.2   1 Q101  -0.0920 
 28 C5      -4.4870     9.9930    13.5610 C.2   1 Q101   0.0810 
 29 C6      -3.3960     9.2640    13.7970 C.2   1 Q101  -0.4200 
 30 O2      -2.1580    10.8030    12.0940 O.2   1 Q101  -0.5930 
 31 H142     2.4680     7.2460    15.0000 H     1 Q101   0.0600 
 32 H141     1.1430     6.7200    16.0840 H     1 Q101   0.0600 
 33 H132    -0.1390     6.8610    14.0720 H     1 Q101   0.0720 
 34 H131     0.9780     8.0350    13.3700 H     1 Q101   0.0720 
 35 H83      4.4950     8.4510    21.8260 H     1 Q101   0.0490 
 36 H82      5.5600     9.4530    22.8600 H     1 Q101   0.0490 
 37 H81      4.2950    10.2270    21.8860 H     1 Q101   0.0490 
 38 H73      8.0370     9.6820    20.9390 H     1 Q101   0.0490 
 39 H72      7.3180     8.3030    21.8320 H     1 Q101   0.0490 
 40 H71      7.4450     8.2660    20.0500 H     1 Q101   0.0490 
 41 H6      -3.3160     8.5130    14.5690 H     1 Q101   0.1940 
 42 H5      -5.4720     9.5300    13.6040 H     1 Q101   0.1560 
 43 H3      -3.4070    12.1400    15.0290 H     1 Q101   0.1600 
 44 H26      5.9810     9.4930    16.9680 H     1 Q101   0.1600 
 45 H24      3.1800    10.1040    20.1820 H     1 Q101   0.1630 
 46 H21      1.3490     9.4670    18.7080 H     1 Q101   0.1530 
 47 H2      -3.7160    14.5750    14.1790 H     1 Q101   0.1720 
 48 H12     -1.2720     8.5120    15.3210 H     1 Q101   0.0910 
 49 H1      -0.5450    10.8510    13.9660 H     1 Q101   0.4670 
@<TRIPOS>BOND
  1   1   2  am  
  2   1   9  1   
  3   1  49  1   
  4   2  21  2   
  5   2  29  1   
  6   2  30  2   
  7   3  11  1   
  8   3  12  1   
  9   3  19  am  
 10   4   7  1   
 11   4   8  1   
 12   4  18  am  
 13   5  19  2   
 14   6  18  2   
 15   7  38  1   
 16   7  39  1   
 17   7  40  1   
 18   8  35  1   
 19   8  36  1   
 20   8  37  1   
 21   9  10  1   
 22   9  19  1   
 23   9  48  1   
 24  10  11  1   
 25  10  33  1   
 26  10  34  1   
 27  11  31  1   
 28  11  32  1   
 29  12  13  ar  
 30  12  14  ar  
 31  13  15  ar  
 32  13  46  1   
 33  14  16  ar  
 34  14  20  1   
 35  15  17  ar  
 36  15  45  1   
 37  16  17  ar  
 38  16  44  1   
 39  17  18  1   
 40  22  23  1   
 41  23  24  2   
 42  23  25  1   
 43  24  26  1   
 44  24  47  1   
 45  25  27  1   
 46  26  27  2   
 47  26  43  1   
 48  27  28  1   
 49  28  29  2   
 50  28  42  1   
 51  29  41  1   
@<TRIPOS>SUBSTRUCTURE
  1 Q101  19 GROUP 4 **** **** 0

# MOE 2011.10 (io_trps.svl 2011.10)

@<TRIPOS>MOLECULE
FXA101_62
49 51 1 0 0 
SMALL
USER_CHARGES


@<TRIPOS>ATOM
  1 N1       3.9640     6.3450    12.7100 N.am  1 Q101  -0.8960 
  2 S1       3.9620     7.1050    11.2850 S.o2  1 Q101   1.3220 
  3 N2       3.9720     6.8880    16.1120 N.am  1 Q101  -0.3970 
  4 N3       8.1450     7.9980    20.9270 N.am  1 Q101  -0.4840 
  5 O3       5.5260     7.8020    14.6760 O.2   1 Q101  -0.6040 
  6 O4       6.7990     6.4850    21.8440 O.2   1 Q101  -0.6060 
  7 C7       8.5010     8.4720    22.2740 C.3   1 Q101   0.0840 
  8 C8       8.9530     8.4760    19.7930 C.3   1 Q101   0.0840 
  9 C12      3.3710     6.9860    13.8600 C.3   1 Q101   0.1690 
 10 C13      2.3600     6.1050    14.6000 C.3   1 Q101  -0.1080 
 11 C14      2.6090     6.3800    16.0790 C.3   1 Q101   0.1020 
 12 C15      4.7460     6.9340    17.3140 C.ar  1 Q101   0.0330 
 13 C21      4.9550     8.1270    17.9910 C.ar  1 Q101  -0.1060 
 14 C22      5.3340     5.7850    17.8240 C.ar  1 Q101   0.1210 
 15 C24      5.7150     8.1760    19.1420 C.ar  1 Q101  -0.0920 
 16 C26      6.1040     5.7950    18.9760 C.ar  1 Q101  -0.1400 
 17 C27      6.2840     7.0110    19.6360 C.ar  1 Q101  -0.1150 
 18 C28      7.1060     7.1590    20.8740 C.2   1 Q101   0.6760 
 19 C50      4.4410     7.2880    14.9030 C.2   1 Q101   0.6950 
 20 F1       5.1430     4.6290    17.1680 F     1 Q101  -0.1400 
 21 O1       4.9610     6.4250    10.5210 O.2   1 Q101  -0.5930 
 22 CL1      1.0690     0.8070    11.1680 Cl    1 Q101  -0.0550 
 23 C1       1.5300     2.2350    10.3030 C.2   1 Q101   0.0330 
 24 C2       1.9030     2.3120     9.0030 C.2   1 Q101  -0.1460 
 25 S2       1.5340     3.7480    11.1200 S.3   1 Q101   0.0240 
 26 C3       2.2100     3.6270     8.6430 C.2   1 Q101  -0.1130 
 27 C4       2.0680     4.5440     9.6780 C.2   1 Q101  -0.0920 
 28 C5       2.3350     5.9810     9.5470 C.2   1 Q101   0.0810 
 29 C6       2.4090     6.8640    10.5420 C.2   1 Q101  -0.4200 
 30 O2       4.1200     8.4820    11.6640 O.2   1 Q101  -0.5930 
 31 H142     2.5150     5.4770    16.6910 H     1 Q101   0.0600 
 32 H141     1.9360     7.1560    16.4570 H     1 Q101   0.0600 
 33 H132     1.3280     6.3150    14.3040 H     1 Q101   0.0720 
 34 H131     2.5530     5.0460    14.3870 H     1 Q101   0.0720 
 35 H83      8.5960     9.4580    19.4930 H     1 Q101   0.0490 
 36 H82     10.0020     8.5290    20.1000 H     1 Q101   0.0490 
 37 H81      8.8610     7.7680    18.9730 H     1 Q101   0.0490 
 38 H73      8.8270     7.6140    22.8680 H     1 Q101   0.0490 
 39 H72      9.2960     9.2190    22.2210 H     1 Q101   0.0490 
 40 H71      7.6200     8.9090    22.7550 H     1 Q101   0.0490 
 41 H6       1.5760     7.4480    10.9080 H     1 Q101   0.1940 
 42 H5       2.5340     6.2960     8.5230 H     1 Q101   0.1560 
 43 H3       2.5170     3.9150     7.6420 H     1 Q101   0.1600 
 44 H26      6.5400     4.8780    19.3470 H     1 Q101   0.1600 
 45 H24      5.8900     9.1260    19.6280 H     1 Q101   0.1630 
 46 H21      4.5290     9.0520    17.6100 H     1 Q101   0.1530 
 47 H2       1.9510     1.4730     8.3220 H     1 Q101   0.1720 
 48 H12      2.8920     7.9410    13.6120 H     1 Q101   0.0910 
 49 H1       4.7480     5.7120    12.8890 H     1 Q101   0.4670 
@<TRIPOS>BOND
  1   1   2  am  
  2   1   9  1   
  3   1  49  1   
  4   2  21  2   
  5   2  29  1   
  6   2  30  2   
  7   3  11  1   
  8   3  12  1   
  9   3  19  am  
 10   4   7  1   
 11   4   8  1   
 12   4  18  am  
 13   5  19  2   
 14   6  18  2   
 15   7  38  1   
 16   7  39  1   
 17   7  40  1   
 18   8  35  1   
 19   8  36  1   
 20   8  37  1   
 21   9  10  1   
 22   9  19  1   
 23   9  48  1   
 24  10  11  1   
 25  10  33  1   
 26  10  34  1   
 27  11  31  1   
 28  11  32  1   
 29  12  13  ar  
 30  12  14  ar  
 31  13  15  ar  
 32  13  46  1   
 33  14  16  ar  
 34  14  20  1   
 35  15  17  ar  
 36  15  45  1   
 37  16  17  ar  
 38  16  44  1   
 39  17  18  1   
 40  22  23  1   
 41  23  24  2   
 42  23  25  1   
 43  24  26  1   
 44  24  47  1   
 45  25  27  1   
 46  26  27  2   
 47  26  43  1   
 48  27  28  1   
 49  28  29  2   
 50  28  42  1   
 51  29  41  1   
@<TRIPOS>SUBSTRUCTURE
  1 Q101  19 GROUP 4 **** **** 0

# MOE 2011.10 (io_trps.svl 2011.10)

@<TRIPOS>MOLECULE
FXA101_63
49 51 1 0 0 
SMALL
USER_CHARGES


@<TRIPOS>ATOM
  1 N1       6.6730     9.0460    21.4940 N.am  1 Q101  -0.8960 
  2 S1       6.9650    10.2630    22.5150 S.o2  1 Q101   1.3220 
  3 N2       6.6250     5.6650    20.8350 N.am  1 Q101  -0.3970 
  4 N3       9.1790     1.0710    16.9640 N.am  1 Q101  -0.4840 
  5 O3       8.4920     6.9870    20.5540 O.2   1 Q101  -0.6040 
  6 O4       7.0220     1.1170    16.4270 O.2   1 Q101  -0.6060 
  7 C7      10.1340     1.4640    18.0120 C.3   1 Q101   0.0840 
  8 C8       9.6720     0.2210    15.8680 C.3   1 Q101   0.0840 
  9 C12      6.6440     7.6900    21.9920 C.3   1 Q101   0.1690 
 10 C13      5.2340     7.0950    22.0680 C.3   1 Q101  -0.1080 
 11 C14      5.3950     5.6480    21.6130 C.3   1 Q101   0.1020 
 12 C15      6.9710     4.6190    19.9220 C.ar  1 Q101   0.0330 
 13 C21      7.1660     4.8760    18.5720 C.ar  1 Q101  -0.1060 
 14 C22      7.0940     3.3080    20.3590 C.ar  1 Q101   0.1210 
 15 C24      7.4830     3.8650    17.6880 C.ar  1 Q101  -0.0920 
 16 C26      7.4100     2.2670    19.5010 C.ar  1 Q101  -0.1400 
 17 C27      7.6100     2.5640    18.1520 C.ar  1 Q101  -0.1150 
 18 C28      7.9350     1.5320    17.1240 C.2   1 Q101   0.6760 
 19 C50      7.3920     6.7650    21.0400 C.2   1 Q101   0.6950 
 20 F1       6.8960     3.0520    21.6630 F     1 Q101  -0.1400 
 21 O1       8.3340    10.0880    22.8900 O.2   1 Q101  -0.5930 
 22 CL1      4.4520    17.0260    19.2780 Cl    1 Q101  -0.0550 
 23 C1       4.5710    15.3100    19.4800 C.2   1 Q101   0.0330 
 24 C2       3.7910    14.3680    18.8980 C.2   1 Q101  -0.1460 
 25 S2       5.7880    14.6670    20.5100 S.3   1 Q101   0.0240 
 26 C3       4.1720    13.0820    19.2920 C.2   1 Q101  -0.1130 
 27 C4       5.2450    13.0580    20.1750 C.2   1 Q101  -0.0920 
 28 C5       5.8240    11.8300    20.7330 C.2   1 Q101   0.0810 
 29 C6       6.7950    11.7570    21.6440 C.2   1 Q101  -0.4200 
 30 O2       5.9050    10.1270    23.4750 O.2   1 Q101  -0.5930 
 31 H142     4.5530     5.3080    21.0020 H     1 Q101   0.0600 
 32 H141     5.5290     4.9770    22.4670 H     1 Q101   0.0600 
 33 H132     4.8020     7.1720    23.0700 H     1 Q101   0.0720 
 34 H131     4.5630     7.6230    21.3790 H     1 Q101   0.0720 
 35 H83     10.1590     0.8480    15.1250 H     1 Q101   0.0490 
 36 H82     10.3780    -0.5100    16.2730 H     1 Q101   0.0490 
 37 H81      8.8300    -0.3080    15.4280 H     1 Q101   0.0490 
 38 H73      9.8110     1.0220    18.9590 H     1 Q101   0.0490 
 39 H72     11.1420     1.1250    17.7610 H     1 Q101   0.0490 
 40 H71     10.1310     2.5540    18.1220 H     1 Q101   0.0490 
 41 H6       7.4880    12.5550    21.8670 H     1 Q101   0.1940 
 42 H5       5.3460    10.9200    20.3720 H     1 Q101   0.1560 
 43 H3       3.6890    12.1800    18.9310 H     1 Q101   0.1600 
 44 H26      7.5050     1.2580    19.8790 H     1 Q101   0.1600 
 45 H24      7.5940     4.0900    16.6360 H     1 Q101   0.1630 
 46 H21      7.0560     5.8870    18.1890 H     1 Q101   0.1530 
 47 H2       2.9820    14.5720    18.2100 H     1 Q101   0.1720 
 48 H12      7.1230     7.5890    22.9730 H     1 Q101   0.0910 
 49 H1       6.9840     9.1750    20.5280 H     1 Q101   0.4670 
@<TRIPOS>BOND
  1   1   2  am  
  2   1   9  1   
  3   1  49  1   
  4   2  21  2   
  5   2  29  1   
  6   2  30  2   
  7   3  11  1   
  8   3  12  1   
  9   3  19  am  
 10   4   7  1   
 11   4   8  1   
 12   4  18  am  
 13   5  19  2   
 14   6  18  2   
 15   7  38  1   
 16   7  39  1   
 17   7  40  1   
 18   8  35  1   
 19   8  36  1   
 20   8  37  1   
 21   9  10  1   
 22   9  19  1   
 23   9  48  1   
 24  10  11  1   
 25  10  33  1   
 26  10  34  1   
 27  11  31  1   
 28  11  32  1   
 29  12  13  ar  
 30  12  14  ar  
 31  13  15  ar  
 32  13  46  1   
 33  14  16  ar  
 34  14  20  1   
 35  15  17  ar  
 36  15  45  1   
 37  16  17  ar  
 38  16  44  1   
 39  17  18  1   
 40  22  23  1   
 41  23  24  2   
 42  23  25  1   
 43  24  26  1   
 44  24  47  1   
 45  25  27  1   
 46  26  27  2   
 47  26  43  1   
 48  27  28  1   
 49  28  29  2   
 50  28  42  1   
 51  29  41  1   
@<TRIPOS>SUBSTRUCTURE
  1 Q101  19 GROUP 4 **** **** 0

# MOE 2011.10 (io_trps.svl 2011.10)

@<TRIPOS>MOLECULE
FXA101_64
49 51 1 0 0 
SMALL
USER_CHARGES


@<TRIPOS>ATOM
  1 N1       6.5150     8.3950    21.9280 N.am  1 Q101  -0.8960 
  2 S1       6.8080     9.1450    23.3280 S.o2  1 Q101   1.3220 
  3 N2       4.7420     6.0840    20.0890 N.am  1 Q101  -0.3970 
  4 N3       5.4020     2.8900    14.4680 N.am  1 Q101  -0.4840 
  5 O3       7.0320     6.0200    20.3400 O.2   1 Q101  -0.6040 
  6 O4       3.1980     3.0030    14.7280 O.2   1 Q101  -0.6060 
  7 C7       6.4390     2.1800    15.2340 C.3   1 Q101   0.0840 
  8 C8       5.6530     3.1400    13.0380 C.3   1 Q101   0.0840 
  9 C12      5.6190     7.2620    21.9010 C.3   1 Q101   0.1690 
 10 C13      4.1460     7.6500    21.7300 C.3   1 Q101  -0.1080 
 11 C14      3.5720     6.6000    20.7850 C.3   1 Q101   0.1020 
 12 C15      4.6450     5.3490    18.8660 C.ar  1 Q101   0.0330 
 13 C21      5.0110     5.9150    17.6530 C.ar  1 Q101  -0.1060 
 14 C22      4.1540     4.0510    18.8560 C.ar  1 Q101   0.1210 
 15 C24      4.9020     5.2120    16.4700 C.ar  1 Q101  -0.0920 
 16 C26      4.0290     3.3150    17.6880 C.ar  1 Q101  -0.1400 
 17 C27      4.4180     3.9130    16.4890 C.ar  1 Q101  -0.1150 
 18 C28      4.3150     3.2350    15.1630 C.2   1 Q101   0.6760 
 19 C50      5.9200     6.3840    20.6920 C.2   1 Q101   0.6950 
 20 F1       3.7880     3.5010    20.0250 F     1 Q101  -0.1400 
 21 O1       5.8690     8.5680    24.2400 O.2   1 Q101  -0.5930 
 22 CL1     13.8730     7.3820    26.5320 Cl    1 Q101  -0.0550 
 23 C1      12.1490     7.5210    26.4560 C.2   1 Q101   0.0330 
 24 C2      11.2660     7.2240    27.4400 C.2   1 Q101  -0.1460 
 25 S2      11.4140     8.0950    25.0110 S.3   1 Q101   0.0240 
 26 C3       9.9510     7.4560    27.0250 C.2   1 Q101  -0.1130 
 27 C4       9.8450     7.9300    25.7230 C.2   1 Q101  -0.0920 
 28 C5       8.5720     8.2440    25.0630 C.2   1 Q101   0.0810 
 29 C6       8.4210     8.7410    23.8360 C.2   1 Q101  -0.4200 
 30 O2       6.7380    10.5310    22.9620 O.2   1 Q101  -0.5930 
 31 H142     2.8540     7.0260    20.0780 H     1 Q101   0.0600 
 32 H141     3.1050     5.7800    21.3410 H     1 Q101   0.0600 
 33 H132     3.6120     7.6910    22.6840 H     1 Q101   0.0720 
 34 H131     4.0680     8.6420    21.2670 H     1 Q101   0.0720 
 35 H83      6.2720     4.0290    12.9380 H     1 Q101   0.0490 
 36 H82      6.1600     2.2720    12.6080 H     1 Q101   0.0490 
 37 H81      4.7010     3.2790    12.5340 H     1 Q101   0.0490 
 38 H73      6.0290     1.2240    15.5680 H     1 Q101   0.0490 
 39 H72      7.3270     2.0160    14.6190 H     1 Q101   0.0490 
 40 H71      6.7100     2.7670    16.1180 H     1 Q101   0.0490 
 41 H6       9.2300     8.9220    23.1430 H     1 Q101   0.1940 
 42 H5       7.6970     7.9800    25.6550 H     1 Q101   0.1560 
 43 H3       9.0880     7.2980    27.6640 H     1 Q101   0.1600 
 44 H26      3.6490     2.3030    17.7200 H     1 Q101   0.1600 
 45 H24      5.1620     5.6930    15.5370 H     1 Q101   0.1630 
 46 H21      5.3790     6.9380    17.6190 H     1 Q101   0.1530 
 47 H2      11.5330     6.8620    28.4230 H     1 Q101   0.1720 
 48 H12      5.7160     6.6250    22.7870 H     1 Q101   0.0910 
 49 H1       7.2720     8.4000    21.2400 H     1 Q101   0.4670 
@<TRIPOS>BOND
  1   1   2  am  
  2   1   9  1   
  3   1  49  1   
  4   2  21  2   
  5   2  29  1   
  6   2  30  2   
  7   3  11  1   
  8   3  12  1   
  9   3  19  am  
 10   4   7  1   
 11   4   8  1   
 12   4  18  am  
 13   5  19  2   
 14   6  18  2   
 15   7  38  1   
 16   7  39  1   
 17   7  40  1   
 18   8  35  1   
 19   8  36  1   
 20   8  37  1   
 21   9  10  1   
 22   9  19  1   
 23   9  48  1   
 24  10  11  1   
 25  10  33  1   
 26  10  34  1   
 27  11  31  1   
 28  11  32  1   
 29  12  13  ar  
 30  12  14  ar  
 31  13  15  ar  
 32  13  46  1   
 33  14  16  ar  
 34  14  20  1   
 35  15  17  ar  
 36  15  45  1   
 37  16  17  ar  
 38  16  44  1   
 39  17  18  1   
 40  22  23  1   
 41  23  24  2   
 42  23  25  1   
 43  24  26  1   
 44  24  47  1   
 45  25  27  1   
 46  26  27  2   
 47  26  43  1   
 48  27  28  1   
 49  28  29  2   
 50  28  42  1   
 51  29  41  1   
@<TRIPOS>SUBSTRUCTURE
  1 Q101   5 GROUP 4 **** **** 0

# MOE 2011.10 (io_trps.svl 2011.10)

@<TRIPOS>MOLECULE
FXA101_65
49 51 1 0 0 
SMALL
USER_CHARGES


@<TRIPOS>ATOM
  1 N1       5.8420     8.1480    22.0280 N.am  1 Q101  -0.8960 
  2 S1       7.2440     8.5660    22.7130 S.o2  1 Q101   1.3220 
  3 N2       4.6990     5.2830    20.4940 N.am  1 Q101  -0.3970 
  4 N3       3.4100     1.8940    15.1270 N.am  1 Q101  -0.4840 
  5 O3       6.8960     5.9740    20.4190 O.2   1 Q101  -0.6040 
  6 O4       5.6240     1.7390    15.2520 O.2   1 Q101  -0.6060 
  7 C7       2.2370     1.8540    16.0140 C.3   1 Q101   0.0840 
  8 C8       3.1930     1.6740    13.6880 C.3   1 Q101   0.0840 
  9 C12      5.3690     6.7880    22.1450 C.3   1 Q101   0.1690 
 10 C13      3.8420     6.6700    22.1800 C.3   1 Q101  -0.1080 
 11 C14      3.5260     5.4360    21.3420 C.3   1 Q101   0.1020 
 12 C15      4.6910     4.4830    19.3080 C.ar  1 Q101   0.0330 
 13 C21      4.3850     5.0320    18.0710 C.ar  1 Q101  -0.1060 
 14 C22      4.9620     3.1240    19.3680 C.ar  1 Q101   0.1210 
 15 C24      4.3600     4.2580    16.9290 C.ar  1 Q101  -0.0920 
 16 C26      4.9460     2.3150    18.2430 C.ar  1 Q101  -0.1400 
 17 C27      4.6450     2.9030    17.0140 C.ar  1 Q101  -0.1150 
 18 C28      4.5760     2.1380    15.7340 C.2   1 Q101   0.6760 
 19 C50      5.7820     5.9820    20.9190 C.2   1 Q101   0.6950 
 20 F1       5.2490     2.5850    20.5640 F     1 Q101  -0.1400 
 21 O1       7.7610     9.5910    21.8600 O.2   1 Q101  -0.5930 
 22 CL1     12.8690     7.1790    26.2830 Cl    1 Q101  -0.0550 
 23 C1      11.4060     7.8520    25.6460 C.2   1 Q101   0.0330 
 24 C2      11.2740     8.5760    24.5080 C.2   1 Q101  -0.1460 
 25 S2       9.9300     7.6100    26.4930 S.3   1 Q101   0.0240 
 26 C3       9.9450     8.9600    24.3060 C.2   1 Q101  -0.1130 
 27 C4       9.0740     8.5220    25.2960 C.2   1 Q101  -0.0920 
 28 C5       7.6330     8.8010    25.3060 C.2   1 Q101   0.0810 
 29 C6       6.9060     9.2400    24.2790 C.2   1 Q101  -0.4200 
 30 O2       7.9130     7.3030    22.8520 O.2   1 Q101  -0.5930 
 31 H142     2.6220     5.5650    20.7370 H     1 Q101   0.0600 
 32 H141     3.4280     4.5450    21.9700 H     1 Q101   0.0600 
 33 H132     3.4520     6.5950    23.1990 H     1 Q101   0.0720 
 34 H131     3.3840     7.5540    21.7180 H     1 Q101   0.0720 
 35 H83      3.1410     0.6040    13.4970 H     1 Q101   0.0490 
 36 H82      2.2590     2.1590    13.3900 H     1 Q101   0.0490 
 37 H81      4.0150     2.1220    13.1360 H     1 Q101   0.0490 
 38 H73      2.1000     2.8460    16.4530 H     1 Q101   0.0490 
 39 H72      1.3430     1.5610    15.4570 H     1 Q101   0.0490 
 40 H71      2.4130     1.1400    16.8250 H     1 Q101   0.0490 
 41 H6       6.1160     9.9720    24.3550 H     1 Q101   0.1940 
 42 H5       7.1500     8.5630    26.2530 H     1 Q101   0.1560 
 43 H3       9.6150     9.5330    23.4450 H     1 Q101   0.1600 
 44 H26      5.1700     1.2600    18.3270 H     1 Q101   0.1600 
 45 H24      4.0830     4.7060    15.9840 H     1 Q101   0.1630 
 46 H21      4.1450     6.0890    17.9880 H     1 Q101   0.1530 
 47 H2      12.0820     8.8230    23.8340 H     1 Q101   0.1720 
 48 H12      5.7830     6.2700    23.0180 H     1 Q101   0.0910 
 49 H1       5.5780     8.6560    21.1800 H     1 Q101   0.4670 
@<TRIPOS>BOND
  1   1   2  am  
  2   1   9  1   
  3   1  49  1   
  4   2  21  2   
  5   2  29  1   
  6   2  30  2   
  7   3  11  1   
  8   3  12  1   
  9   3  19  am  
 10   4   7  1   
 11   4   8  1   
 12   4  18  am  
 13   5  19  2   
 14   6  18  2   
 15   7  38  1   
 16   7  39  1   
 17   7  40  1   
 18   8  35  1   
 19   8  36  1   
 20   8  37  1   
 21   9  10  1   
 22   9  19  1   
 23   9  48  1   
 24  10  11  1   
 25  10  33  1   
 26  10  34  1   
 27  11  31  1   
 28  11  32  1   
 29  12  13  ar  
 30  12  14  ar  
 31  13  15  ar  
 32  13  46  1   
 33  14  16  ar  
 34  14  20  1   
 35  15  17  ar  
 36  15  45  1   
 37  16  17  ar  
 38  16  44  1   
 39  17  18  1   
 40  22  23  1   
 41  23  24  2   
 42  23  25  1   
 43  24  26  1   
 44  24  47  1   
 45  25  27  1   
 46  26  27  2   
 47  26  43  1   
 48  27  28  1   
 49  28  29  2   
 50  28  42  1   
 51  29  41  1   
@<TRIPOS>SUBSTRUCTURE
  1 Q101  19 GROUP 4 **** **** 0

# MOE 2011.10 (io_trps.svl 2011.10)

@<TRIPOS>MOLECULE
FXA101_66
49 51 1 0 0 
SMALL
USER_CHARGES


@<TRIPOS>ATOM
  1 N1       2.8660     7.0580    22.2820 N.am  1 Q101  -0.8960 
  2 S1       1.9530     6.1150    21.3400 S.o2  1 Q101   1.3220 
  3 N2       5.8940     8.6390    22.7240 N.am  1 Q101  -0.3970 
  4 N3      11.3070     7.9270    26.2640 N.am  1 Q101  -0.4840 
  5 O3       5.6290     6.3520    22.8260 O.2   1 Q101  -0.6040 
  6 O4      11.1780    10.1230    25.9470 O.2   1 Q101  -0.6060 
  7 C7      10.5100     7.1080    27.1920 C.3   1 Q101   0.0840 
  8 C8      12.6730     7.4760    25.9480 C.3   1 Q101   0.0840 
  9 C12      3.9820     7.7710    21.7070 C.3   1 Q101   0.1690 
 10 C13      3.8450     9.2950    21.7900 C.3   1 Q101  -0.1080 
 11 C14      5.2450     9.7970    22.1250 C.3   1 Q101   0.1020 
 12 C15      7.0840     8.7470    23.5110 C.ar  1 Q101   0.0330 
 13 C21      8.3110     9.0230    22.9260 C.ar  1 Q101  -0.1060 
 14 C22      7.0460     8.5510    24.8830 C.ar  1 Q101   0.1210 
 15 C24      9.4630     9.1110    23.6820 C.ar  1 Q101  -0.0920 
 16 C26      8.1810     8.6310    25.6740 C.ar  1 Q101  -0.1400 
 17 C27      9.3970     8.9210    25.0540 C.ar  1 Q101  -0.1150 
 18 C28     10.6920     9.0140    25.7900 C.2   1 Q101   0.6760 
 19 C50      5.2570     7.4650    22.4850 C.2   1 Q101   0.6950 
 20 F1       5.8620     8.2740    25.4540 F     1 Q101  -0.1400 
 21 O1       0.7840     5.8600    22.1230 O.2   1 Q101  -0.5930 
 22 CL1      1.1950     7.7400    13.3460 Cl    1 Q101  -0.0550 
 23 C1       1.1960     7.7110    15.0780 C.2   1 Q101   0.0330 
 24 C2       0.7070     8.6660    15.9060 C.2   1 Q101  -0.1460 
 25 S2       1.8690     6.3570    15.8960 S.3   1 Q101   0.0240 
 26 C3       0.8810     8.3090    17.2460 C.2   1 Q101  -0.1130 
 27 C4       1.5040     7.0790    17.4270 C.2   1 Q101  -0.0920 
 28 C5       1.7980     6.4910    18.7380 C.2   1 Q101   0.0810 
 29 C6       1.5100     7.0230    19.9260 C.2   1 Q101  -0.4200 
 30 O2       2.8580     5.0580    20.9840 O.2   1 Q101  -0.5930 
 31 H142     5.2290    10.6390    22.8240 H     1 Q101   0.0600 
 32 H141     5.7920    10.0770    21.2200 H     1 Q101   0.0600 
 33 H132     3.4550     9.7300    20.8660 H     1 Q101   0.0720 
 34 H131     3.1550     9.5680    22.5980 H     1 Q101   0.0720 
 35 H83     13.3440     7.8000    26.7400 H     1 Q101   0.0490 
 36 H82     12.6780     6.3860    25.8660 H     1 Q101   0.0490 
 37 H81     12.9720     7.9040    24.9950 H     1 Q101   0.0490 
 38 H73      9.6510     6.7060    26.6480 H     1 Q101   0.0490 
 39 H72     11.1130     6.2940    27.6020 H     1 Q101   0.0490 
 40 H71     10.1380     7.7350    28.0090 H     1 Q101   0.0490 
 41 H6       1.0340     7.9820    20.0690 H     1 Q101   0.1940 
 42 H5       2.2520     5.5020    18.6800 H     1 Q101   0.1560 
 43 H3       0.5460     8.9240    18.0750 H     1 Q101   0.1600 
 44 H26      8.1120     8.4790    26.7430 H     1 Q101   0.1600 
 45 H24     10.4110     9.2920    23.1930 H     1 Q101   0.1630 
 46 H21      8.3840     9.1610    21.8500 H     1 Q101   0.1530 
 47 H2       0.2350     9.5830    15.5820 H     1 Q101   0.1720 
 48 H12      4.1720     7.4900    20.6650 H     1 Q101   0.0910 
 49 H1       2.9540     6.7760    23.2620 H     1 Q101   0.4670 
@<TRIPOS>BOND
  1   1   2  am  
  2   1   9  1   
  3   1  49  1   
  4   2  21  2   
  5   2  29  1   
  6   2  30  2   
  7   3  11  1   
  8   3  12  1   
  9   3  19  am  
 10   4   7  1   
 11   4   8  1   
 12   4  18  am  
 13   5  19  2   
 14   6  18  2   
 15   7  38  1   
 16   7  39  1   
 17   7  40  1   
 18   8  35  1   
 19   8  36  1   
 20   8  37  1   
 21   9  10  1   
 22   9  19  1   
 23   9  48  1   
 24  10  11  1   
 25  10  33  1   
 26  10  34  1   
 27  11  31  1   
 28  11  32  1   
 29  12  13  ar  
 30  12  14  ar  
 31  13  15  ar  
 32  13  46  1   
 33  14  16  ar  
 34  14  20  1   
 35  15  17  ar  
 36  15  45  1   
 37  16  17  ar  
 38  16  44  1   
 39  17  18  1   
 40  22  23  1   
 41  23  24  2   
 42  23  25  1   
 43  24  26  1   
 44  24  47  1   
 45  25  27  1   
 46  26  27  2   
 47  26  43  1   
 48  27  28  1   
 49  28  29  2   
 50  28  42  1   
 51  29  41  1   
@<TRIPOS>SUBSTRUCTURE
  1 Q101  19 GROUP 4 **** **** 0

# MOE 2011.10 (io_trps.svl 2011.10)

@<TRIPOS>MOLECULE
FXA101_67
49 51 1 0 0 
SMALL
USER_CHARGES


@<TRIPOS>ATOM
  1 N1       6.6470     9.1810    21.8090 N.am  1 Q101  -0.8960 
  2 S1       7.7500     8.7870    22.9210 S.o2  1 Q101   1.3220 
  3 N2       4.6600     7.9890    19.2590 N.am  1 Q101  -0.3970 
  4 N3       2.4710     7.4780    13.1510 N.am  1 Q101  -0.4840 
  5 O3       6.9620     7.8970    19.2240 O.2   1 Q101  -0.6040 
  6 O4       4.5430     8.2420    12.9010 O.2   1 Q101  -0.6060 
  7 C7       1.5510     6.8670    14.1240 C.3   1 Q101   0.0840 
  8 C8       2.0060     7.6200    11.7610 C.3   1 Q101   0.0840 
  9 C12      5.7360     8.1710    21.3210 C.3   1 Q101   0.1690 
 10 C13      4.2600     8.5370    21.5040 C.3   1 Q101  -0.1080 
 11 C14      3.5760     8.0570    20.2280 C.3   1 Q101   0.1020 
 12 C15      4.4270     7.9360    17.8490 C.ar  1 Q101   0.0330 
 13 C21      4.2430     9.0940    17.1050 C.ar  1 Q101  -0.1060 
 14 C22      4.3500     6.7200    17.1870 C.ar  1 Q101   0.1210 
 15 C24      4.0020     9.0440    15.7480 C.ar  1 Q101  -0.0920 
 16 C26      4.1090     6.6300    15.8260 C.ar  1 Q101  -0.1400 
 17 C27      3.9400     7.8150    15.1080 C.ar  1 Q101  -0.1150 
 18 C28      3.6550     7.8530    13.6430 C.2   1 Q101   0.6760 
 19 C50      5.8980     8.0020    19.8140 C.2   1 Q101   0.6950 
 20 F1       4.5180     5.5950    17.9030 F     1 Q101  -0.1400 
 21 O1       8.9720     9.3300    22.4130 O.2   1 Q101  -0.5930 
 22 CL1     13.3450     7.7510    25.0740 Cl    1 Q101  -0.0550 
 23 C1      11.6520     7.8600    25.4190 C.2   1 Q101   0.0330 
 24 C2      10.9040     6.9660    26.1090 C.2   1 Q101  -0.1460 
 25 S2      10.7660     9.2240    24.8600 S.3   1 Q101   0.0240 
 26 C3       9.5710     7.3770    26.1910 C.2   1 Q101  -0.1130 
 27 C4       9.3150     8.5880    25.5590 C.2   1 Q101  -0.0920 
 28 C5       7.9940     9.2250    25.5060 C.2   1 Q101   0.0810 
 29 C6       7.3380     9.5930    24.4050 C.2   1 Q101  -0.4200 
 30 O2       7.5640     7.3700    23.0600 O.2   1 Q101  -0.5930 
 31 H142     2.7950     8.7450    19.8910 H     1 Q101   0.0600 
 32 H141     3.1570     7.0540    20.3570 H     1 Q101   0.0600 
 33 H132     3.8280     8.0890    22.4040 H     1 Q101   0.0720 
 34 H131     4.1480     9.6250    21.5920 H     1 Q101   0.0720 
 35 H83      2.1540     6.6770    11.2400 H     1 Q101   0.0490 
 36 H82      0.9470     7.8920    11.7650 H     1 Q101   0.0490 
 37 H81      2.5720     8.4150    11.2820 H     1 Q101   0.0490 
 38 H73      1.2950     7.6160    14.8770 H     1 Q101   0.0490 
 39 H72      0.6470     6.5070    13.6260 H     1 Q101   0.0490 
 40 H71      2.0490     6.0300    14.6260 H     1 Q101   0.0490 
 41 H6       6.5630    10.3440    24.3750 H     1 Q101   0.1940 
 42 H5       7.5250     9.3410    26.4830 H     1 Q101   0.1560 
 43 H3       8.8040     6.8150    26.7140 H     1 Q101   0.1600 
 44 H26      4.0640     5.6630    15.3430 H     1 Q101   0.1600 
 45 H24      3.8260     9.9610    15.2010 H     1 Q101   0.1630 
 46 H21      4.2740    10.0650    17.5930 H     1 Q101   0.1530 
 47 H2      11.2820     6.0530    26.5500 H     1 Q101   0.1720 
 48 H12      5.9150     7.1880    21.7700 H     1 Q101   0.0910 
 49 H1       6.9020     9.9260    21.1550 H     1 Q101   0.4670 
@<TRIPOS>BOND
  1   1   2  am  
  2   1   9  1   
  3   1  49  1   
  4   2  21  2   
  5   2  29  1   
  6   2  30  2   
  7   3  11  1   
  8   3  12  1   
  9   3  19  am  
 10   4   7  1   
 11   4   8  1   
 12   4  18  am  
 13   5  19  2   
 14   6  18  2   
 15   7  38  1   
 16   7  39  1   
 17   7  40  1   
 18   8  35  1   
 19   8  36  1   
 20   8  37  1   
 21   9  10  1   
 22   9  19  1   
 23   9  48  1   
 24  10  11  1   
 25  10  33  1   
 26  10  34  1   
 27  11  31  1   
 28  11  32  1   
 29  12  13  ar  
 30  12  14  ar  
 31  13  15  ar  
 32  13  46  1   
 33  14  16  ar  
 34  14  20  1   
 35  15  17  ar  
 36  15  45  1   
 37  16  17  ar  
 38  16  44  1   
 39  17  18  1   
 40  22  23  1   
 41  23  24  2   
 42  23  25  1   
 43  24  26  1   
 44  24  47  1   
 45  25  27  1   
 46  26  27  2   
 47  26  43  1   
 48  27  28  1   
 49  28  29  2   
 50  28  42  1   
 51  29  41  1   
@<TRIPOS>SUBSTRUCTURE
  1 Q101  19 GROUP 4 **** **** 0

# MOE 2011.10 (io_trps.svl 2011.10)

@<TRIPOS>MOLECULE
FXA101_68
49 51 1 0 0 
SMALL
USER_CHARGES


@<TRIPOS>ATOM
  1 N1       3.9590     7.6510    23.3120 N.am  1 Q101  -0.8960 
  2 S1       4.2730     8.6560    24.5360 S.o2  1 Q101   1.3220 
  3 N2       4.7330     4.6220    21.8640 N.am  1 Q101  -0.3970 
  4 N3       8.6560     1.9300    17.4780 N.am  1 Q101  -0.4840 
  5 O3       6.2530     6.3360    22.1120 O.2   1 Q101  -0.6040 
  6 O4       6.6560     1.2920    16.7490 O.2   1 Q101  -0.6060 
  7 C7       9.2270     1.1540    16.3660 C.3   1 Q101   0.0840 
  8 C8       9.5870     2.6390    18.3720 C.3   1 Q101   0.0840 
  9 C12      4.2200     6.2380    23.4660 C.3   1 Q101   0.1690 
 10 C13      2.9850     5.3590    23.2430 C.3   1 Q101  -0.1080 
 11 C14      3.5010     4.1460    22.4770 C.3   1 Q101   0.1020 
 12 C15      5.3590     3.9430    20.7720 C.ar  1 Q101   0.0330 
 13 C21      6.2380     2.8910    20.9860 C.ar  1 Q101  -0.1060 
 14 C22      5.1240     4.3390    19.4630 C.ar  1 Q101   0.1210 
 15 C24      6.8560     2.2460    19.9340 C.ar  1 Q101  -0.0920 
 16 C26      5.7270     3.7160    18.3810 C.ar  1 Q101  -0.1400 
 17 C27      6.5960     2.6550    18.6340 C.ar  1 Q101  -0.1150 
 18 C28      7.3220     1.9160    17.5590 C.2   1 Q101   0.6760 
 19 C50      5.2110     5.7690    22.4080 C.2   1 Q101   0.6950 
 20 F1       4.2820     5.3630    19.2500 F     1 Q101  -0.1400 
 21 O1       3.3420     8.2750    25.5540 O.2   1 Q101  -0.5930 
 22 CL1     11.9790     7.5560    26.2000 Cl    1 Q101  -0.0550 
 23 C1      10.6000     8.1950    25.3710 C.2   1 Q101   0.0330 
 24 C2      10.6060     8.9530    24.2480 C.2   1 Q101  -0.1460 
 25 S2       9.0260     7.8680    25.9820 S.3   1 Q101   0.0240 
 26 C3       9.3070     9.2940    23.8620 C.2   1 Q101  -0.1130 
 27 C4       8.3180     8.7890    24.6970 C.2   1 Q101  -0.0920 
 28 C5       6.8820     9.0130    24.5010 C.2   1 Q101   0.0810 
 29 C6       5.8900     8.3480    25.0940 C.2   1 Q101  -0.4200 
 30 O2       4.2050     9.9460    23.9080 O.2   1 Q101  -0.5930 
 31 H142     2.7940     3.8040    21.7150 H     1 Q101   0.0600 
 32 H141     3.7420     3.3220    23.1560 H     1 Q101   0.0600 
 33 H132     2.4950     5.0830    24.1820 H     1 Q101   0.0720 
 34 H131     2.2470     5.8920    22.6310 H     1 Q101   0.0720 
 35 H83      9.9670     1.9400    19.1140 H     1 Q101   0.0490 
 36 H82     10.4090     3.0490    17.7780 H     1 Q101   0.0490 
 37 H81      9.0580     3.4570    18.8530 H     1 Q101   0.0490 
 38 H73      8.9040     1.6080    15.4250 H     1 Q101   0.0490 
 39 H72     10.3180     1.1430    16.4250 H     1 Q101   0.0490 
 40 H71      8.8480     0.1270    16.4020 H     1 Q101   0.0490 
 41 H6       6.0240     7.6230    25.8840 H     1 Q101   0.1940 
 42 H5       6.6570     9.8460    23.8360 H     1 Q101   0.1560 
 43 H3       9.0840     9.8850    22.9790 H     1 Q101   0.1600 
 44 H26      5.5130     4.0480    17.3740 H     1 Q101   0.1600 
 45 H24      7.5640     1.4540    20.1340 H     1 Q101   0.1630 
 46 H21      6.4640     2.5680    21.9990 H     1 Q101   0.1530 
 47 H2      11.4940     9.2540    23.7100 H     1 Q101   0.1720 
 48 H12      4.6570     5.9920    24.4410 H     1 Q101   0.0910 
 49 H1       4.0520     8.0360    22.3690 H     1 Q101   0.4670 
@<TRIPOS>BOND
  1   1   2  am  
  2   1   9  1   
  3   1  49  1   
  4   2  21  2   
  5   2  29  1   
  6   2  30  2   
  7   3  11  1   
  8   3  12  1   
  9   3  19  am  
 10   4   7  1   
 11   4   8  1   
 12   4  18  am  
 13   5  19  2   
 14   6  18  2   
 15   7  38  1   
 16   7  39  1   
 17   7  40  1   
 18   8  35  1   
 19   8  36  1   
 20   8  37  1   
 21   9  10  1   
 22   9  19  1   
 23   9  48  1   
 24  10  11  1   
 25  10  33  1   
 26  10  34  1   
 27  11  31  1   
 28  11  32  1   
 29  12  13  ar  
 30  12  14  ar  
 31  13  15  ar  
 32  13  46  1   
 33  14  16  ar  
 34  14  20  1   
 35  15  17  ar  
 36  15  45  1   
 37  16  17  ar  
 38  16  44  1   
 39  17  18  1   
 40  22  23  1   
 41  23  24  2   
 42  23  25  1   
 43  24  26  1   
 44  24  47  1   
 45  25  27  1   
 46  26  27  2   
 47  26  43  1   
 48  27  28  1   
 49  28  29  2   
 50  28  42  1   
 51  29  41  1   
@<TRIPOS>SUBSTRUCTURE
  1 Q101   5 GROUP 4 **** **** 0

# MOE 2011.10 (io_trps.svl 2011.10)

@<TRIPOS>MOLECULE
FXA101_69
49 51 1 0 0 
SMALL
USER_CHARGES


@<TRIPOS>ATOM
  1 N1       4.5020     8.0570    21.4640 N.am  1 Q101  -0.8960 
  2 S1       3.8440     8.9120    22.6660 S.o2  1 Q101   1.3220 
  3 N2       4.4770     5.3430    19.3430 N.am  1 Q101  -0.3970 
  4 N3       8.7690     1.3480    16.5990 N.am  1 Q101  -0.4840 
  5 O3       5.9860     5.5940    21.0660 O.2   1 Q101  -0.6040 
  6 O4       7.1610     1.4120    15.0660 O.2   1 Q101  -0.6060 
  7 C7       9.4210     0.3250    15.7670 C.3   1 Q101   0.0840 
  8 C8       9.4590     1.7780    17.8260 C.3   1 Q101   0.0840 
  9 C12      3.8760     6.8260    21.0390 C.3   1 Q101   0.1690 
 10 C13      2.9080     7.0050    19.8650 C.3   1 Q101  -0.1080 
 11 C14      3.1400     5.7880    18.9770 C.3   1 Q101   0.1020 
 12 C15      5.2460     4.4610    18.5190 C.ar  1 Q101   0.0330 
 13 C21      5.5230     3.1610    18.9170 C.ar  1 Q101  -0.1060 
 14 C22      5.7610     4.8940    17.3050 C.ar  1 Q101   0.1210 
 15 C24      6.2780     2.3150    18.1300 C.ar  1 Q101  -0.0920 
 16 C26      6.5240     4.0730    16.4900 C.ar  1 Q101  -0.1400 
 17 C27      6.7730     2.7690    16.9170 C.ar  1 Q101  -0.1150 
 18 C28      7.5950     1.7940    16.1410 C.2   1 Q101   0.6760 
 19 C50      4.9280     5.8560    20.5150 C.2   1 Q101   0.6950 
 20 F1       5.5050     6.1540    16.9190 F     1 Q101  -0.1400 
 21 O1       2.5030     9.1570    22.2310 O.2   1 Q101  -0.5930 
 22 CL1     10.1300     9.6240    24.7400 Cl    1 Q101  -0.0550 
 23 C1       8.5760     8.8920    24.5140 C.2   1 Q101   0.0330 
 24 C2       8.2540     7.9320    23.6150 C.2   1 Q101  -0.1460 
 25 S2       7.2620     9.3870    25.5060 S.3   1 Q101   0.0240 
 26 C3       6.9050     7.5800    23.7140 C.2   1 Q101  -0.1130 
 27 C4       6.2090     8.2790    24.6930 C.2   1 Q101  -0.0920 
 28 C5       4.7830     8.0890    24.9840 C.2   1 Q101   0.0810 
 29 C6       3.8110     7.9140    24.0890 C.2   1 Q101  -0.4200 
 30 O2       4.7810     9.9860    22.8360 O.2   1 Q101  -0.5930 
 31 H142     3.0900     6.0340    17.9120 H     1 Q101   0.0600 
 32 H141     2.4290     4.9880    19.2070 H     1 Q101   0.0600 
 33 H132     1.8670     7.0910    20.1910 H     1 Q101   0.0720 
 34 H131     3.1540     7.9170    19.3070 H     1 Q101   0.0720 
 35 H83      9.2500     1.0640    18.6190 H     1 Q101   0.0490 
 36 H82     10.5340     1.8280    17.6320 H     1 Q101   0.0490 
 37 H81      9.1040     2.7690    18.1000 H     1 Q101   0.0490 
 38 H73      9.6700     0.7710    14.8000 H     1 Q101   0.0490 
 39 H72     10.3240    -0.0500    16.2540 H     1 Q101   0.0490 
 40 H71      8.7270    -0.5050    15.5930 H     1 Q101   0.0490 
 41 H6       3.0150     7.1900    24.1820 H     1 Q101   0.1940 
 42 H5       4.5580     8.0450    26.0490 H     1 Q101   0.1560 
 43 H3       6.4400     6.8170    23.0960 H     1 Q101   0.1600 
 44 H26      6.9020     4.4430    15.5460 H     1 Q101   0.1600 
 45 H24      6.5070     1.3180    18.4840 H     1 Q101   0.1630 
 46 H21      5.1550     2.7940    19.8720 H     1 Q101   0.1530 
 47 H2       8.9440     7.4830    22.9140 H     1 Q101   0.1720 
 48 H12      3.3510     6.3150    21.8540 H     1 Q101   0.0910 
 49 H1       5.5190     8.1140    21.3660 H     1 Q101   0.4670 
@<TRIPOS>BOND
  1   1   2  am  
  2   1   9  1   
  3   1  49  1   
  4   2  21  2   
  5   2  29  1   
  6   2  30  2   
  7   3  11  1   
  8   3  12  1   
  9   3  19  am  
 10   4   7  1   
 11   4   8  1   
 12   4  18  am  
 13   5  19  2   
 14   6  18  2   
 15   7  38  1   
 16   7  39  1   
 17   7  40  1   
 18   8  35  1   
 19   8  36  1   
 20   8  37  1   
 21   9  10  1   
 22   9  19  1   
 23   9  48  1   
 24  10  11  1   
 25  10  33  1   
 26  10  34  1   
 27  11  31  1   
 28  11  32  1   
 29  12  13  ar  
 30  12  14  ar  
 31  13  15  ar  
 32  13  46  1   
 33  14  16  ar  
 34  14  20  1   
 35  15  17  ar  
 36  15  45  1   
 37  16  17  ar  
 38  16  44  1   
 39  17  18  1   
 40  22  23  1   
 41  23  24  2   
 42  23  25  1   
 43  24  26  1   
 44  24  47  1   
 45  25  27  1   
 46  26  27  2   
 47  26  43  1   
 48  27  28  1   
 49  28  29  2   
 50  28  42  1   
 51  29  41  1   
@<TRIPOS>SUBSTRUCTURE
  1 Q101   5 GROUP 4 **** **** 0

# MOE 2011.10 (io_trps.svl 2011.10)

@<TRIPOS>MOLECULE
FXA101_70
49 51 1 0 0 
SMALL
USER_CHARGES


@<TRIPOS>ATOM
  1 N1       7.3890    10.4750    22.2960 N.am  1 Q101  -0.8960 
  2 S1       8.5060     9.7790    23.2330 S.o2  1 Q101   1.3220 
  3 N2       5.1850    10.0000    19.6910 N.am  1 Q101  -0.3970 
  4 N3       3.3100    12.0670    13.7760 N.am  1 Q101  -0.4840 
  5 O3       7.4680     9.7680    19.4810 O.2   1 Q101  -0.6040 
  6 O4       4.2920    10.1050    13.4220 O.2   1 Q101  -0.6060 
  7 C7       1.8500    12.0330    13.9510 C.3   1 Q101   0.0840 
  8 C8       3.9020    13.2690    13.1660 C.3   1 Q101   0.0840 
  9 C12      6.3780     9.6580    21.6660 C.3   1 Q101   0.1690 
 10 C13      4.9460    10.0710    22.0230 C.3   1 Q101  -0.1080 
 11 C14      4.1620     9.9260    20.7240 C.3   1 Q101   0.1020 
 12 C15      4.8760    10.2720    18.3210 C.ar  1 Q101   0.0330 
 13 C21      4.0280     9.4460    17.5960 C.ar  1 Q101  -0.1060 
 14 C22      5.4400    11.3590    17.6690 C.ar  1 Q101   0.1210 
 15 C24      3.7410     9.6980    16.2700 C.ar  1 Q101  -0.0920 
 16 C26      5.1760    11.6420    16.3380 C.ar  1 Q101  -0.1400 
 17 C27      4.3100    10.7970    15.6440 C.ar  1 Q101  -0.1150 
 18 C28      3.9620    10.9820    14.2040 C.2   1 Q101   0.6760 
 19 C50      6.4480     9.8110    20.1510 C.2   1 Q101   0.6950 
 20 F1       6.2690    12.1560    18.3620 F     1 Q101  -0.1400 
 21 O1       9.1430    10.8750    23.8950 O.2   1 Q101  -0.5930 
 22 CL1     13.6140     7.2560    25.8480 Cl    1 Q101  -0.0550 
 23 C1      11.9150     7.4690    26.1100 C.2   1 Q101   0.0330 
 24 C2      11.1700     6.9150    27.0960 C.2   1 Q101  -0.1460 
 25 S2      11.0210     8.4810    25.0460 S.3   1 Q101   0.0240 
 26 C3       9.8310     7.3050    26.9980 C.2   1 Q101  -0.1130 
 27 C4       9.5690     8.1580    25.9320 C.2   1 Q101  -0.0920 
 28 C5       8.2420     8.7000    25.6200 C.2   1 Q101   0.0810 
 29 C6       7.6910     8.7930    24.4100 C.2   1 Q101  -0.4200 
 30 O2       9.2220     8.9500    22.3040 O.2   1 Q101  -0.5930 
 31 H142     3.4210    10.7210    20.5950 H     1 Q101   0.0600 
 32 H141     3.6720     8.9490    20.6630 H     1 Q101   0.0600 
 33 H132     4.5280     9.4670    22.8330 H     1 Q101   0.0720 
 34 H131     4.9250    11.1180    22.3490 H     1 Q101   0.0720 
 35 H83      3.8190    13.1950    12.0840 H     1 Q101   0.0490 
 36 H82      3.3690    14.1520    13.5300 H     1 Q101   0.0490 
 37 H81      4.9440    13.3380    13.4660 H     1 Q101   0.0490 
 38 H73      1.6290    12.0020    15.0220 H     1 Q101   0.0490 
 39 H72      1.3870    12.9120    13.4960 H     1 Q101   0.0490 
 40 H71      1.4450    11.1260    13.4900 H     1 Q101   0.0490 
 41 H6       6.7840     8.2890    24.1080 H     1 Q101   0.1940 
 42 H5       7.6730     8.9960    26.5010 H     1 Q101   0.1560 
 43 H3       9.0650     6.9880    27.6980 H     1 Q101   0.1600 
 44 H26      5.6290    12.5040    15.8650 H     1 Q101   0.1600 
 45 H24      3.1050     9.0160    15.7220 H     1 Q101   0.1630 
 46 H21      3.5850     8.5720    18.0680 H     1 Q101   0.1530 
 47 H2      11.5520     6.2610    27.8680 H     1 Q101   0.1720 
 48 H12      6.5020     8.5900    21.8820 H     1 Q101   0.0910 
 49 H1       7.6750    11.3210    21.7960 H     1 Q101   0.4670 
@<TRIPOS>BOND
  1   1   2  am  
  2   1   9  1   
  3   1  49  1   
  4   2  21  2   
  5   2  29  1   
  6   2  30  2   
  7   3  11  1   
  8   3  12  1   
  9   3  19  am  
 10   4   7  1   
 11   4   8  1   
 12   4  18  am  
 13   5  19  2   
 14   6  18  2   
 15   7  38  1   
 16   7  39  1   
 17   7  40  1   
 18   8  35  1   
 19   8  36  1   
 20   8  37  1   
 21   9  10  1   
 22   9  19  1   
 23   9  48  1   
 24  10  11  1   
 25  10  33  1   
 26  10  34  1   
 27  11  31  1   
 28  11  32  1   
 29  12  13  ar  
 30  12  14  ar  
 31  13  15  ar  
 32  13  46  1   
 33  14  16  ar  
 34  14  20  1   
 35  15  17  ar  
 36  15  45  1   
 37  16  17  ar  
 38  16  44  1   
 39  17  18  1   
 40  22  23  1   
 41  23  24  2   
 42  23  25  1   
 43  24  26  1   
 44  24  47  1   
 45  25  27  1   
 46  26  27  2   
 47  26  43  1   
 48  27  28  1   
 49  28  29  2   
 50  28  42  1   
 51  29  41  1   
@<TRIPOS>SUBSTRUCTURE
  1 Q101  19 GROUP 4 **** **** 0

# MOE 2011.10 (io_trps.svl 2011.10)

@<TRIPOS>MOLECULE
FXA101_71
49 51 1 0 0 
SMALL
USER_CHARGES


@<TRIPOS>ATOM
  1 N1       0.3210     5.0740    23.5890 N.am  1 Q101  -0.8960 
  2 S1       0.6960     6.6130    23.9050 S.o2  1 Q101   1.3220 
  3 N2      -0.9430     2.6790    21.4600 N.am  1 Q101  -0.3970 
  4 N3      -2.2580    -3.4660    19.8480 N.am  1 Q101  -0.4840 
  5 O3      -1.8260     3.1200    23.5420 O.2   1 Q101  -0.6040 
  6 O4      -3.4790    -3.1760    21.6820 O.2   1 Q101  -0.6060 
  7 C7      -2.7450    -3.1000    18.5080 C.3   1 Q101   0.0840 
  8 C8      -1.3250    -4.6000    19.9540 C.3   1 Q101   0.0840 
  9 C12     -0.4180     4.7520    22.3900 C.3   1 Q101   0.1690 
 10 C13      0.4730     4.5250    21.1640 C.3   1 Q101  -0.1080 
 11 C14     -0.1650     3.3510    20.4290 C.3   1 Q101   0.1020 
 12 C15     -1.4130     1.3360    21.3140 C.ar  1 Q101   0.0330 
 13 C21     -0.6760     0.2590    21.7870 C.ar  1 Q101  -0.1060 
 14 C22     -2.6100     1.0690    20.6670 C.ar  1 Q101   0.1210 
 15 C24     -1.1190    -1.0380    21.6320 C.ar  1 Q101  -0.0920 
 16 C26     -3.0870    -0.2200    20.4910 C.ar  1 Q101  -0.1400 
 17 C27     -2.3250    -1.2770    20.9900 C.ar  1 Q101  -0.1150 
 18 C28     -2.7180    -2.7100    20.8490 C.2   1 Q101   0.6760 
 19 C50     -1.1580     3.4320    22.5680 C.2   1 Q101   0.6950 
 20 F1      -3.3240     2.1060    20.1970 F     1 Q101  -0.1400 
 21 O1       0.3360     6.7880    25.2790 O.2   1 Q101  -0.5930 
 22 CL1      8.5370     7.9860    23.9650 Cl    1 Q101  -0.0550 
 23 C1       6.8710     8.2170    24.3800 C.2   1 Q101   0.0330 
 24 C2       6.3790     9.0440    25.3330 C.2   1 Q101  -0.1460 
 25 S2       5.6630     7.3380    23.5290 S.3   1 Q101   0.0240 
 26 C3       4.9850     8.9710    25.3940 C.2   1 Q101  -0.1130 
 27 C4       4.4250     8.0850    24.4820 C.2   1 Q101  -0.0920 
 28 C5       2.9850     7.8320    24.3560 C.2   1 Q101   0.0810 
 29 C6       2.4150     6.8010    23.7340 C.2   1 Q101  -0.4200 
 30 O2       0.0140     7.3220    22.8590 O.2   1 Q101  -0.5930 
 31 H142     0.5800     2.6750    20.0000 H     1 Q101   0.0600 
 32 H141    -0.8470     3.6980    19.6450 H     1 Q101   0.0600 
 33 H132     0.5540     5.4170    20.5360 H     1 Q101   0.0720 
 34 H131     1.4870     4.2520    21.4790 H     1 Q101   0.0720 
 35 H83     -1.8940    -5.5270    19.9570 H     1 Q101   0.0490 
 36 H82     -0.6370    -4.5770    19.1040 H     1 Q101   0.0490 
 37 H81     -0.7530    -4.4990    20.8730 H     1 Q101   0.0490 
 38 H73     -2.3800    -2.0980    18.2680 H     1 Q101   0.0490 
 39 H72     -2.3960    -3.8190    17.7620 H     1 Q101   0.0490 
 40 H71     -3.8400    -3.0760    18.5090 H     1 Q101   0.0490 
 41 H6       2.9440     6.0840    23.1230 H     1 Q101   0.1940 
 42 H5       2.3680     8.5600    24.8820 H     1 Q101   0.1560 
 43 H3       4.3860     9.5640    26.0780 H     1 Q101   0.1600 
 44 H26     -4.0300    -0.3880    19.9880 H     1 Q101   0.1600 
 45 H24     -0.5060    -1.8580    21.9800 H     1 Q101   0.1630 
 46 H21      0.2790     0.4270    22.2800 H     1 Q101   0.1530 
 47 H2       6.9770     9.6870    25.9640 H     1 Q101   0.1720 
 48 H12     -1.1730     5.5080    22.1430 H     1 Q101   0.0910 
 49 H1       0.1750     4.4640    24.3980 H     1 Q101   0.4670 
@<TRIPOS>BOND
  1   1   2  am  
  2   1   9  1   
  3   1  49  1   
  4   2  21  2   
  5   2  29  1   
  6   2  30  2   
  7   3  11  1   
  8   3  12  1   
  9   3  19  am  
 10   4   7  1   
 11   4   8  1   
 12   4  18  am  
 13   5  19  2   
 14   6  18  2   
 15   7  38  1   
 16   7  39  1   
 17   7  40  1   
 18   8  35  1   
 19   8  36  1   
 20   8  37  1   
 21   9  10  1   
 22   9  19  1   
 23   9  48  1   
 24  10  11  1   
 25  10  33  1   
 26  10  34  1   
 27  11  31  1   
 28  11  32  1   
 29  12  13  ar  
 30  12  14  ar  
 31  13  15  ar  
 32  13  46  1   
 33  14  16  ar  
 34  14  20  1   
 35  15  17  ar  
 36  15  45  1   
 37  16  17  ar  
 38  16  44  1   
 39  17  18  1   
 40  22  23  1   
 41  23  24  2   
 42  23  25  1   
 43  24  26  1   
 44  24  47  1   
 45  25  27  1   
 46  26  27  2   
 47  26  43  1   
 48  27  28  1   
 49  28  29  2   
 50  28  42  1   
 51  29  41  1   
@<TRIPOS>SUBSTRUCTURE
  1 Q101  19 GROUP 4 **** **** 0

# MOE 2011.10 (io_trps.svl 2011.10)

@<TRIPOS>MOLECULE
FXA101_72
49 51 1 0 0 
SMALL
USER_CHARGES


@<TRIPOS>ATOM
  1 N1       7.0320     9.1210    21.1490 N.am  1 Q101  -0.8960 
  2 S1       8.1860     9.5040    22.2120 S.o2  1 Q101   1.3220 
  3 N2       6.1410     7.4080    18.2960 N.am  1 Q101  -0.3970 
  4 N3       3.7010     6.5920    12.3520 N.am  1 Q101  -0.4840 
  5 O3       7.4050     9.3350    18.2780 O.2   1 Q101  -0.6040 
  6 O4       4.1910     8.7600    12.3580 O.2   1 Q101  -0.6060 
  7 C7       2.5890     5.9120    13.0340 C.3   1 Q101   0.0840 
  8 C8       4.1960     6.0080    11.0940 C.3   1 Q101   0.0840 
  9 C12      7.2040     7.9690    20.2950 C.3   1 Q101   0.1690 
 10 C13      6.2010     6.8450    20.5720 C.3   1 Q101  -0.1080 
 11 C14      5.8250     6.3080    19.1950 C.3   1 Q101   0.1020 
 12 C15      5.6180     7.4880    16.9670 C.ar  1 Q101   0.0330 
 13 C21      5.8970     6.5090    16.0230 C.ar  1 Q101  -0.1060 
 14 C22      4.8380     8.5650    16.5750 C.ar  1 Q101   0.1210 
 15 C24      5.4080     6.5930    14.7360 C.ar  1 Q101  -0.0920 
 16 C26      4.3300     8.6840    15.2910 C.ar  1 Q101  -0.1400 
 17 C27      4.6210     7.6760    14.3720 C.ar  1 Q101  -0.1150 
 18 C28      4.1510     7.6960    12.9550 C.2   1 Q101   0.6760 
 19 C50      6.9500     8.3500    18.8410 C.2   1 Q101   0.6950 
 20 F1       4.5720     9.5210    17.4810 F     1 Q101  -0.1400 
 21 O1       7.9250    10.8720    22.5380 O.2   1 Q101  -0.5930 
 22 CL1      1.6230     8.2730    25.5070 Cl    1 Q101  -0.0550 
 23 C1       3.3150     8.4480    25.1790 C.2   1 Q101   0.0330 
 24 C2       4.1430     9.4000    25.6710 C.2   1 Q101  -0.1460 
 25 S2       4.0890     7.3260    24.1320 S.3   1 Q101   0.0240 
 26 C3       5.4450     9.2350    25.1900 C.2   1 Q101  -0.1130 
 27 C4       5.5960     8.1530    24.3320 C.2   1 Q101  -0.0920 
 28 C5       6.8650     7.7770    23.6970 C.2   1 Q101   0.0810 
 29 C6       7.9670     8.5240    23.6310 C.2   1 Q101  -0.4200 
 30 O2       9.3860     9.1160    21.5250 O.2   1 Q101  -0.5930 
 31 H142     4.7650     6.0420    19.1280 H     1 Q101   0.0600 
 32 H141     6.4420     5.4450    18.9240 H     1 Q101   0.0600 
 33 H132     6.6120     6.0690    21.2250 H     1 Q101   0.0720 
 34 H131     5.3070     7.2480    21.0640 H     1 Q101   0.0720 
 35 H83      4.8890     5.2030    11.3260 H     1 Q101   0.0490 
 36 H82      3.3460     5.6270    10.5200 H     1 Q101   0.0490 
 37 H81      4.6900     6.7850    10.5170 H     1 Q101   0.0490 
 38 H73      1.7230     6.5800    13.0370 H     1 Q101   0.0490 
 39 H72      2.3420     4.9750    12.5290 H     1 Q101   0.0490 
 40 H71      2.8660     5.7040    14.0730 H     1 Q101   0.0490 
 41 H6       8.7220     8.5730    24.4010 H     1 Q101   0.1940 
 42 H5       6.8710     6.7630    23.3010 H     1 Q101   0.1560 
 43 H3       6.2710     9.8810    25.4710 H     1 Q101   0.1600 
 44 H26      3.7180     9.5350    15.0240 H     1 Q101   0.1600 
 45 H24      5.6720     5.8330    14.0120 H     1 Q101   0.1630 
 46 H21      6.5240     5.6610    16.2870 H     1 Q101   0.1530 
 47 H2       3.8470    10.1850    26.3540 H     1 Q101   0.1720 
 48 H12      8.2190     7.5560    20.3410 H     1 Q101   0.0910 
 49 H1       6.4840     9.8970    20.7700 H     1 Q101   0.4670 
@<TRIPOS>BOND
  1   1   2  am  
  2   1   9  1   
  3   1  49  1   
  4   2  21  2   
  5   2  29  1   
  6   2  30  2   
  7   3  11  1   
  8   3  12  1   
  9   3  19  am  
 10   4   7  1   
 11   4   8  1   
 12   4  18  am  
 13   5  19  2   
 14   6  18  2   
 15   7  38  1   
 16   7  39  1   
 17   7  40  1   
 18   8  35  1   
 19   8  36  1   
 20   8  37  1   
 21   9  10  1   
 22   9  19  1   
 23   9  48  1   
 24  10  11  1   
 25  10  33  1   
 26  10  34  1   
 27  11  31  1   
 28  11  32  1   
 29  12  13  ar  
 30  12  14  ar  
 31  13  15  ar  
 32  13  46  1   
 33  14  16  ar  
 34  14  20  1   
 35  15  17  ar  
 36  15  45  1   
 37  16  17  ar  
 38  16  44  1   
 39  17  18  1   
 40  22  23  1   
 41  23  24  2   
 42  23  25  1   
 43  24  26  1   
 44  24  47  1   
 45  25  27  1   
 46  26  27  2   
 47  26  43  1   
 48  27  28  1   
 49  28  29  2   
 50  28  42  1   
 51  29  41  1   
@<TRIPOS>SUBSTRUCTURE
  1 Q101   3 GROUP 4 **** **** 0

# MOE 2011.10 (io_trps.svl 2011.10)

@<TRIPOS>MOLECULE
FXA101_73
49 51 1 0 0 
SMALL
USER_CHARGES


@<TRIPOS>ATOM
  1 N1       2.6410     5.3870    19.8750 N.am  1 Q101  -0.8960 
  2 S1       1.2100     5.3070    19.1300 S.o2  1 Q101   1.3220 
  3 N2       4.4960     6.4590    22.5720 N.am  1 Q101  -0.3970 
  4 N3       9.8210     9.0020    25.3260 N.am  1 Q101  -0.4840 
  5 O3       3.8740     7.8350    20.8310 O.2   1 Q101  -0.6040 
  6 O4       9.1220    10.6020    23.9520 O.2   1 Q101  -0.6060 
  7 C7      11.0560     9.7790    25.5140 C.3   1 Q101   0.0840 
  8 C8       9.6240     7.8080    26.1660 C.3   1 Q101   0.0840 
  9 C12      2.6960     5.7390    21.2750 C.3   1 Q101   0.1690 
 10 C13      3.1410     4.5860    22.1800 C.3   1 Q101  -0.1080 
 11 C14      4.0530     5.2310    23.2170 C.3   1 Q101   0.1020 
 12 C15      5.6370     7.1950    23.0230 C.ar  1 Q101   0.0330 
 13 C21      5.6120     7.9050    24.2150 C.ar  1 Q101  -0.1060 
 14 C22      6.7970     7.2410    22.2630 C.ar  1 Q101   0.1210 
 15 C24      6.7060     8.6280    24.6430 C.ar  1 Q101  -0.0920 
 16 C26      7.9140     7.9580    22.6590 C.ar  1 Q101  -0.1400 
 17 C27      7.8570     8.6500    23.8690 C.ar  1 Q101  -0.1150 
 18 C28      8.9850     9.4740    24.3970 C.2   1 Q101   0.6760 
 19 C50      3.7450     6.8220    21.5020 C.2   1 Q101   0.6950 
 20 F1       6.8240     6.5640    21.1030 F     1 Q101  -0.1400 
 21 O1       0.8900     6.6690    18.8340 O.2   1 Q101  -0.5930 
 22 CL1      5.5980     8.6100    14.6850 Cl    1 Q101  -0.0550 
 23 C1       4.6820     7.3780    15.4850 C.2   1 Q101   0.0330 
 24 C2       5.1430     6.4780    16.3860 C.2   1 Q101  -0.1460 
 25 S2       3.0020     7.2280    15.1490 S.3   1 Q101   0.0240 
 26 C3       4.1220     5.6300    16.8230 C.2   1 Q101  -0.1130 
 27 C4       2.8850     5.8940    16.2470 C.2   1 Q101  -0.0920 
 28 C5       1.6610     5.1390    16.5420 C.2   1 Q101   0.0810 
 29 C6       1.4180     4.4300    17.6440 C.2   1 Q101  -0.4200 
 30 O2       0.4200     4.5380    20.0510 O.2   1 Q101  -0.5930 
 31 H142     4.9070     4.5960    23.4720 H     1 Q101   0.0600 
 32 H141     3.5000     5.4920    24.1250 H     1 Q101   0.0600 
 33 H132     2.2940     4.0640    22.6360 H     1 Q101   0.0720 
 34 H131     3.7090     3.8480    21.6010 H     1 Q101   0.0720 
 35 H83     10.1640     6.9730    25.7250 H     1 Q101   0.0490 
 36 H82      9.9990     8.0150    27.1730 H     1 Q101   0.0490 
 37 H81      8.5610     7.5900    26.2230 H     1 Q101   0.0490 
 38 H73     10.7870    10.7720    25.8850 H     1 Q101   0.0490 
 39 H72     11.7220     9.2780    26.2210 H     1 Q101   0.0490 
 40 H71     11.5660     9.8970    24.5520 H     1 Q101   0.0490 
 41 H6       1.3270     3.3540    17.6740 H     1 Q101   0.1940 
 42 H5       0.8910     5.2410    15.7780 H     1 Q101   0.1560 
 43 H3       4.2710     4.8460    17.5580 H     1 Q101   0.1600 
 44 H26      8.8040     7.9640    22.0430 H     1 Q101   0.1600 
 45 H24      6.6440     9.2010    25.5580 H     1 Q101   0.1630 
 46 H21      4.7130     7.9100    24.8270 H     1 Q101   0.1530 
 47 H2       6.1650     6.4210    16.7350 H     1 Q101   0.1720 
 48 H12      1.7450     6.1360    21.6490 H     1 Q101   0.0910 
 49 H1       3.4410     5.6600    19.2990 H     1 Q101   0.4670 
@<TRIPOS>BOND
  1   1   2  am  
  2   1   9  1   
  3   1  49  1   
  4   2  21  2   
  5   2  29  1   
  6   2  30  2   
  7   3  11  1   
  8   3  12  1   
  9   3  19  am  
 10   4   7  1   
 11   4   8  1   
 12   4  18  am  
 13   5  19  2   
 14   6  18  2   
 15   7  38  1   
 16   7  39  1   
 17   7  40  1   
 18   8  35  1   
 19   8  36  1   
 20   8  37  1   
 21   9  10  1   
 22   9  19  1   
 23   9  48  1   
 24  10  11  1   
 25  10  33  1   
 26  10  34  1   
 27  11  31  1   
 28  11  32  1   
 29  12  13  ar  
 30  12  14  ar  
 31  13  15  ar  
 32  13  46  1   
 33  14  16  ar  
 34  14  20  1   
 35  15  17  ar  
 36  15  45  1   
 37  16  17  ar  
 38  16  44  1   
 39  17  18  1   
 40  22  23  1   
 41  23  24  2   
 42  23  25  1   
 43  24  26  1   
 44  24  47  1   
 45  25  27  1   
 46  26  27  2   
 47  26  43  1   
 48  27  28  1   
 49  28  29  2   
 50  28  42  1   
 51  29  41  1   
@<TRIPOS>SUBSTRUCTURE
  1 Q101   5 GROUP 4 **** **** 0

# MOE 2011.10 (io_trps.svl 2011.10)

@<TRIPOS>MOLECULE
FXA101_74
49 51 1 0 0 
SMALL
USER_CHARGES


@<TRIPOS>ATOM
  1 N1       3.9040     9.4360    20.6480 N.am  1 Q101  -0.8960 
  2 S1       2.3600     9.7470    20.2910 S.o2  1 Q101   1.3220 
  3 N2       6.2390     8.1080    22.8050 N.am  1 Q101  -0.3970 
  4 N3      11.8110     7.9450    26.1610 N.am  1 Q101  -0.4840 
  5 O3       5.3690    10.2300    23.0250 O.2   1 Q101  -0.6040 
  6 O4      11.3980    10.1180    25.9480 O.2   1 Q101  -0.6060 
  7 C7      11.2110     7.1930    27.2740 C.3   1 Q101   0.0840 
  8 C8      13.1260     7.5060    25.6630 C.3   1 Q101   0.0840 
  9 C12      4.2160     8.5160    21.7180 C.3   1 Q101   0.1690 
 10 C13      4.7730     7.1750    21.2310 C.3   1 Q101  -0.1080 
 11 C14      5.8740     6.8240    22.2250 C.3   1 Q101   0.1020 
 12 C15      7.4660     8.3100    23.5120 C.ar  1 Q101   0.0330 
 13 C21      7.5460     8.1230    24.8850 C.ar  1 Q101  -0.1060 
 14 C22      8.6080     8.7280    22.8450 C.ar  1 Q101   0.1210 
 15 C24      8.7240     8.3340    25.5710 C.ar  1 Q101  -0.0920 
 16 C26      9.8090     8.9510    23.5000 C.ar  1 Q101  -0.1400 
 17 C27      9.8550     8.7420    24.8790 C.ar  1 Q101  -0.1150 
 18 C28     11.0800     8.9650    25.7030 C.2   1 Q101   0.6760 
 19 C50      5.3250     9.0880    22.5940 C.2   1 Q101   0.6950 
 20 F1       8.5350     8.9200    21.5180 F     1 Q101  -0.1400 
 21 O1       1.8610     8.5090    19.7760 O.2   1 Q101  -0.5930 
 22 CL1     -1.9330     8.2830    27.1060 Cl    1 Q101  -0.0550 
 23 C1      -1.0480     8.9370    25.7690 C.2   1 Q101   0.0330 
 24 C2      -0.6450    10.2210    25.6120 C.2   1 Q101  -0.1460 
 25 S2      -0.5950     7.9020    24.4730 S.3   1 Q101   0.0240 
 26 C3       0.0450    10.3910    24.4080 C.2   1 Q101  -0.1130 
 27 C4       0.1630     9.2280    23.6570 C.2   1 Q101  -0.0920 
 28 C5       0.8400     9.1530    22.3570 C.2   1 Q101   0.0810 
 29 C6       1.5260    10.1310    21.7660 C.2   1 Q101  -0.4200 
 30 O2       2.4600    10.9140    19.4610 O.2   1 Q101  -0.5930 
 31 H142     6.7380     6.3560    21.7410 H     1 Q101   0.0600 
 32 H141     5.4980     6.1730    23.0210 H     1 Q101   0.0600 
 33 H132     4.0020     6.4010    21.1710 H     1 Q101   0.0720 
 34 H131     5.2050     7.2860    20.2290 H     1 Q101   0.0720 
 35 H83     13.9020     7.9210    26.3020 H     1 Q101   0.0490 
 36 H82     13.1650     6.4130    25.6760 H     1 Q101   0.0490 
 37 H81     13.2470     7.8520    24.6400 H     1 Q101   0.0490 
 38 H73     10.2940     6.7180    26.9180 H     1 Q101   0.0490 
 39 H72     11.9080     6.4380    27.6480 H     1 Q101   0.0490 
 40 H71     10.9500     7.8820    28.0850 H     1 Q101   0.0490 
 41 H6       1.5880    11.1450    22.1340 H     1 Q101   0.1940 
 42 H5       0.7900     8.1670    21.8960 H     1 Q101   0.1560 
 43 H3       0.4680    11.3390    24.0920 H     1 Q101   0.1600 
 44 H26     10.6820     9.2690    22.9450 H     1 Q101   0.1600 
 45 H24      8.7470     8.2150    26.6460 H     1 Q101   0.1630 
 46 H21      6.6650     7.8180    25.4450 H     1 Q101   0.1530 
 47 H2      -0.8230    11.0170    26.3220 H     1 Q101   0.1720 
 48 H12      3.3600     8.3260    22.3760 H     1 Q101   0.0910 
 49 H1       4.5740    10.1910    20.4800 H     1 Q101   0.4670 
@<TRIPOS>BOND
  1   1   2  am  
  2   1   9  1   
  3   1  49  1   
  4   2  21  2   
  5   2  29  1   
  6   2  30  2   
  7   3  11  1   
  8   3  12  1   
  9   3  19  am  
 10   4   7  1   
 11   4   8  1   
 12   4  18  am  
 13   5  19  2   
 14   6  18  2   
 15   7  38  1   
 16   7  39  1   
 17   7  40  1   
 18   8  35  1   
 19   8  36  1   
 20   8  37  1   
 21   9  10  1   
 22   9  19  1   
 23   9  48  1   
 24  10  11  1   
 25  10  33  1   
 26  10  34  1   
 27  11  31  1   
 28  11  32  1   
 29  12  13  ar  
 30  12  14  ar  
 31  13  15  ar  
 32  13  46  1   
 33  14  16  ar  
 34  14  20  1   
 35  15  17  ar  
 36  15  45  1   
 37  16  17  ar  
 38  16  44  1   
 39  17  18  1   
 40  22  23  1   
 41  23  24  2   
 42  23  25  1   
 43  24  26  1   
 44  24  47  1   
 45  25  27  1   
 46  26  27  2   
 47  26  43  1   
 48  27  28  1   
 49  28  29  2   
 50  28  42  1   
 51  29  41  1   
@<TRIPOS>SUBSTRUCTURE
  1 Q101  19 GROUP 4 **** **** 0

# MOE 2011.10 (io_trps.svl 2011.10)

@<TRIPOS>MOLECULE
FXA101_75
49 51 1 0 0 
SMALL
USER_CHARGES


@<TRIPOS>ATOM
  1 N1       5.8200     8.8050    23.3330 N.am  1 Q101  -0.8960 
  2 S1       6.7760     8.9080    24.6300 S.o2  1 Q101   1.3220 
  3 N2       3.0960     7.2780    21.8780 N.am  1 Q101  -0.3970 
  4 N3      -0.2150     6.9940    16.3170 N.am  1 Q101  -0.4840 
  5 O3       4.9490     7.9680    20.6930 O.2   1 Q101  -0.6040 
  6 O4      -1.8150     7.4580    17.7880 O.2   1 Q101  -0.6060 
  7 C7      -0.0190     8.1670    15.4500 C.3   1 Q101   0.0840 
  8 C8       0.0680     5.6650    15.7500 C.3   1 Q101   0.0840 
  9 C12      5.0510     7.6030    23.1080 C.3   1 Q101   0.1690 
 10 C13      3.8810     7.4320    24.0820 C.3   1 Q101  -0.1080 
 11 C14      2.7410     6.8810    23.2320 C.3   1 Q101   0.1020 
 12 C15      2.1460     7.2920    20.8080 C.ar  1 Q101   0.0330 
 13 C21      1.7570     6.1200    20.1750 C.ar  1 Q101  -0.1060 
 14 C22      1.6070     8.4860    20.3540 C.ar  1 Q101   0.1210 
 15 C24      0.8540     6.1340    19.1320 C.ar  1 Q101  -0.0920 
 16 C26      0.6990     8.5400    19.3090 C.ar  1 Q101  -0.1400 
 17 C27      0.3220     7.3410    18.7030 C.ar  1 Q101  -0.1150 
 18 C28     -0.6320     7.2640    17.5570 C.2   1 Q101   0.6760 
 19 C50      4.3930     7.6500    21.7340 C.2   1 Q101   0.6950 
 20 F1       1.9880     9.6250    20.9560 F     1 Q101  -0.1400 
 21 O1       6.0220     8.2850    25.6740 O.2   1 Q101  -0.5930 
 22 CL1     14.2000     7.5050    27.1160 Cl    1 Q101  -0.0550 
 23 C1      12.7210     7.6570    26.2280 C.2   1 Q101   0.0330 
 24 C2      12.5810     8.0860    24.9510 C.2   1 Q101  -0.1460 
 25 S2      11.2370     7.2320    26.9860 S.3   1 Q101   0.0240 
 26 C3      11.2390     8.0830    24.5610 C.2   1 Q101  -0.1130 
 27 C4      10.3650     7.6490    25.5500 C.2   1 Q101  -0.0920 
 28 C5       8.9100     7.5610    25.3810 C.2   1 Q101   0.0810 
 29 C6       8.2100     7.9750    24.3250 C.2   1 Q101  -0.4200 
 30 O2       7.0960    10.3070    24.6740 O.2   1 Q101  -0.5930 
 31 H142     1.7700     7.2970    23.5190 H     1 Q101   0.0600 
 32 H141     2.7050     5.7870    23.2790 H     1 Q101   0.0600 
 33 H132     4.1300     6.7770    24.9220 H     1 Q101   0.0720 
 34 H131     3.5900     8.4040    24.4980 H     1 Q101   0.0720 
 35 H83     -0.7960     5.3320    15.1800 H     1 Q101   0.0490 
 36 H82      0.9480     5.7330    15.1040 H     1 Q101   0.0490 
 37 H81      0.2800     4.9750    16.5630 H     1 Q101   0.0490 
 38 H73      0.7860     8.7770    15.8690 H     1 Q101   0.0490 
 39 H72      0.2330     7.8560    14.4330 H     1 Q101   0.0490 
 40 H71     -0.9340     8.7680    15.4330 H     1 Q101   0.0490 
 41 H6       8.4800     7.7830    23.2970 H     1 Q101   0.1940 
 42 H5       8.4060     7.0550    26.2040 H     1 Q101   0.1560 
 43 H3      10.9060     8.3760    23.5700 H     1 Q101   0.1600 
 44 H26      0.2930     9.4900    18.9870 H     1 Q101   0.1600 
 45 H24      0.5970     5.2080    18.6340 H     1 Q101   0.1630 
 46 H21      2.1760     5.1660    20.4880 H     1 Q101   0.1530 
 47 H2      13.3960     8.3860    24.3060 H     1 Q101   0.1720 
 48 H12      5.6670     6.6960    23.1330 H     1 Q101   0.0910 
 49 H1       6.1190     9.3220    22.5020 H     1 Q101   0.4670 
@<TRIPOS>BOND
  1   1   2  am  
  2   1   9  1   
  3   1  49  1   
  4   2  21  2   
  5   2  29  1   
  6   2  30  2   
  7   3  11  1   
  8   3  12  1   
  9   3  19  am  
 10   4   7  1   
 11   4   8  1   
 12   4  18  am  
 13   5  19  2   
 14   6  18  2   
 15   7  38  1   
 16   7  39  1   
 17   7  40  1   
 18   8  35  1   
 19   8  36  1   
 20   8  37  1   
 21   9  10  1   
 22   9  19  1   
 23   9  48  1   
 24  10  11  1   
 25  10  33  1   
 26  10  34  1   
 27  11  31  1   
 28  11  32  1   
 29  12  13  ar  
 30  12  14  ar  
 31  13  15  ar  
 32  13  46  1   
 33  14  16  ar  
 34  14  20  1   
 35  15  17  ar  
 36  15  45  1   
 37  16  17  ar  
 38  16  44  1   
 39  17  18  1   
 40  22  23  1   
 41  23  24  2   
 42  23  25  1   
 43  24  26  1   
 44  24  47  1   
 45  25  27  1   
 46  26  27  2   
 47  26  43  1   
 48  27  28  1   
 49  28  29  2   
 50  28  42  1   
 51  29  41  1   
@<TRIPOS>SUBSTRUCTURE
  1 Q101  19 GROUP 4 **** **** 0

# MOE 2011.10 (io_trps.svl 2011.10)

@<TRIPOS>MOLECULE
FXA101_76
49 51 1 0 0 
SMALL
USER_CHARGES


@<TRIPOS>ATOM
  1 N1       6.1440     8.8270    21.8960 N.am  1 Q101  -0.8960 
  2 S1       6.0550     9.9570    23.0470 S.o2  1 Q101   1.3220 
  3 N2       6.3260     5.5020    21.0160 N.am  1 Q101  -0.3970 
  4 N3       8.6970     1.1070    16.7870 N.am  1 Q101  -0.4840 
  5 O3       8.1620     6.7590    21.6130 O.2   1 Q101  -0.6040 
  6 O4       9.9890     0.9460    18.5880 O.2   1 Q101  -0.6060 
  7 C7       7.2990     1.3890    16.4260 C.3   1 Q101   0.0840 
  8 C8       9.5500     0.4540    15.7800 C.3   1 Q101   0.0840 
  9 C12      5.9000     7.4440    22.2350 C.3   1 Q101   0.1690 
 10 C13      4.5720     6.9060    21.6910 C.3   1 Q101  -0.1080 
 11 C14      4.8860     5.4860    21.2290 C.3   1 Q101   0.1020 
 12 C15      6.9980     4.5040    20.2420 C.ar  1 Q101   0.0330 
 13 C21      7.1420     3.2050    20.7100 C.ar  1 Q101  -0.1060 
 14 C22      7.5510     4.8160    19.0090 C.ar  1 Q101   0.1210 
 15 C24      7.8050     2.2460    19.9720 C.ar  1 Q101  -0.0920 
 16 C26      8.2240     3.8800    18.2400 C.ar  1 Q101  -0.1400 
 17 C27      8.3400     2.5810    18.7370 C.ar  1 Q101  -0.1150 
 18 C28      9.0570     1.4880    18.0170 C.2   1 Q101   0.6760 
 19 C50      6.9580     6.5520    21.5960 C.2   1 Q101   0.6950 
 20 F1       7.4230     6.0740    18.5550 F     1 Q101  -0.1400 
 21 O1       4.7550     9.7770    23.6170 O.2   1 Q101  -0.5930 
 22 CL1     11.7840     6.9780    27.6530 Cl    1 Q101  -0.0550 
 23 C1      11.1120     7.7620    26.2640 C.2   1 Q101   0.0330 
 24 C2      11.7910     8.2390    25.1920 C.2   1 Q101  -0.1460 
 25 S2       9.4100     7.9880    26.1670 S.3   1 Q101   0.0240 
 26 C3      10.9230     8.8140    24.2600 C.2   1 Q101  -0.1130 
 27 C4       9.5850     8.7680    24.6310 C.2   1 Q101  -0.0920 
 28 C5       8.4870     9.3090    23.8200 C.2   1 Q101   0.0810 
 29 C6       7.2600     9.6060    24.2490 C.2   1 Q101  -0.4200 
 30 O2       6.4000    11.1560    22.3370 O.2   1 Q101  -0.5930 
 31 H142     4.3580     5.2230    20.3070 H     1 Q101   0.0600 
 32 H141     4.6540     4.7560    22.0110 H     1 Q101   0.0600 
 33 H132     3.7730     6.9360    22.4370 H     1 Q101   0.0720 
 34 H131     4.2440     7.5050    20.8330 H     1 Q101   0.0720 
 35 H83      9.3730    -0.6190    15.8090 H     1 Q101   0.0490 
 36 H82      9.3050     0.8550    14.7920 H     1 Q101   0.0490 
 37 H81     10.5900     0.6770    16.0030 H     1 Q101   0.0490 
 38 H73      7.1550     2.4720    16.4160 H     1 Q101   0.0490 
 39 H72      7.0620     0.9680    15.4460 H     1 Q101   0.0490 
 40 H71      6.6300     0.9590    17.1800 H     1 Q101   0.0490 
 41 H6       6.9630     9.6300    25.2880 H     1 Q101   0.1940 
 42 H5       8.7680     9.5150    22.7880 H     1 Q101   0.1560 
 43 H3      11.2570     9.2420    23.3200 H     1 Q101   0.1600 
 44 H26      8.6350     4.1580    17.2790 H     1 Q101   0.1600 
 45 H24      7.9320     1.2520    20.3790 H     1 Q101   0.1630 
 46 H21      6.7410     2.9290    21.6820 H     1 Q101   0.1530 
 47 H2      12.8630     8.1800    25.0630 H     1 Q101   0.1720 
 48 H12      5.9400     7.2600    23.3140 H     1 Q101   0.0910 
 49 H1       6.8000     9.0050    21.1310 H     1 Q101   0.4670 
@<TRIPOS>BOND
  1   1   2  am  
  2   1   9  1   
  3   1  49  1   
  4   2  21  2   
  5   2  29  1   
  6   2  30  2   
  7   3  11  1   
  8   3  12  1   
  9   3  19  am  
 10   4   7  1   
 11   4   8  1   
 12   4  18  am  
 13   5  19  2   
 14   6  18  2   
 15   7  38  1   
 16   7  39  1   
 17   7  40  1   
 18   8  35  1   
 19   8  36  1   
 20   8  37  1   
 21   9  10  1   
 22   9  19  1   
 23   9  48  1   
 24  10  11  1   
 25  10  33  1   
 26  10  34  1   
 27  11  31  1   
 28  11  32  1   
 29  12  13  ar  
 30  12  14  ar  
 31  13  15  ar  
 32  13  46  1   
 33  14  16  ar  
 34  14  20  1   
 35  15  17  ar  
 36  15  45  1   
 37  16  17  ar  
 38  16  44  1   
 39  17  18  1   
 40  22  23  1   
 41  23  24  2   
 42  23  25  1   
 43  24  26  1   
 44  24  47  1   
 45  25  27  1   
 46  26  27  2   
 47  26  43  1   
 48  27  28  1   
 49  28  29  2   
 50  28  42  1   
 51  29  41  1   
@<TRIPOS>SUBSTRUCTURE
  1 Q101   5 GROUP 4 **** **** 0

# MOE 2011.10 (io_trps.svl 2011.10)

@<TRIPOS>MOLECULE
FXA101_77
49 51 1 0 0 
SMALL
USER_CHARGES


@<TRIPOS>ATOM
  1 N1       5.6920     5.9060    16.3270 N.am  1 Q101  -0.8960 
  2 S1       4.6510     5.3450    15.2270 S.o2  1 Q101   1.3220 
  3 N2       6.8830     5.9880    19.5580 N.am  1 Q101  -0.3970 
  4 N3       9.8070     8.6460    24.7180 N.am  1 Q101  -0.4840 
  5 O3       5.3940     7.5310    18.7150 O.2   1 Q101  -0.6040 
  6 O4       8.6350    10.3370    23.8770 O.2   1 Q101  -0.6060 
  7 C7       9.1400     8.1450    25.9310 C.3   1 Q101   0.0840 
  8 C8      11.2710     8.5150    24.6340 C.3   1 Q101   0.0840 
  9 C12      5.6920     5.3460    17.6590 C.3   1 Q101   0.1690 
 10 C13      6.8160     4.3330    17.8980 C.3   1 Q101  -0.1080 
 11 C14      7.3010     4.6150    19.3160 C.3   1 Q101   0.1020 
 12 C15      7.4370     6.7850    20.6100 C.ar  1 Q101   0.0330 
 13 C21      7.0930     6.5670    21.9360 C.ar  1 Q101  -0.1060 
 14 C22      8.3150     7.8210    20.3270 C.ar  1 Q101   0.1210 
 15 C24      7.6130     7.3460    22.9500 C.ar  1 Q101  -0.0920 
 16 C26      8.8570     8.6240    21.3180 C.ar  1 Q101  -0.1400 
 17 C27      8.4970     8.3690    22.6420 C.ar  1 Q101  -0.1150 
 18 C28      8.9950     9.1730    23.7970 C.2   1 Q101   0.6760 
 19 C50      5.9460     6.4410    18.6880 C.2   1 Q101   0.6950 
 20 F1       8.6440     8.0430    19.0440 F     1 Q101  -0.1400 
 21 O1       3.3700     5.7570    15.7130 O.2   1 Q101  -0.5930 
 22 CL1      5.8680     1.6420     9.4970 Cl    1 Q101  -0.0550 
 23 C1       5.0380     2.9820    10.2130 C.2   1 Q101   0.0330 
 24 C2       3.9180     3.5860     9.7490 C.2   1 Q101  -0.1460 
 25 S2       5.6450     3.6650    11.6700 S.3   1 Q101   0.0240 
 26 C3       3.5290     4.6380    10.5830 C.2   1 Q101  -0.1130 
 27 C4       4.3620     4.8270    11.6790 C.2   1 Q101  -0.0920 
 28 C5       4.1630     5.8690    12.6940 C.2   1 Q101   0.0810 
 29 C6       4.9740     6.1410    13.7160 C.2   1 Q101  -0.4200 
 30 O2       5.0040     3.9560    15.1400 O.2   1 Q101  -0.5930 
 31 H142     8.3870     4.5160    19.4110 H     1 Q101   0.0600 
 32 H141     6.8040     3.9640    20.0420 H     1 Q101   0.0600 
 33 H132     6.4800     3.3000    17.7690 H     1 Q101   0.0720 
 34 H131     7.6360     4.5040    17.1900 H     1 Q101   0.0720 
 35 H83     11.7320     9.3390    25.1740 H     1 Q101   0.0490 
 36 H82     11.5690     7.5580    25.0720 H     1 Q101   0.0490 
 37 H81     11.5650     8.5310    23.5880 H     1 Q101   0.0490 
 38 H73      8.4890     7.3130    25.6500 H     1 Q101   0.0490 
 39 H72      9.8780     7.8160    26.6670 H     1 Q101   0.0490 
 40 H71      8.5200     8.9370    26.3630 H     1 Q101   0.0490 
 41 H6       5.8220     6.8080    13.6660 H     1 Q101   0.1940 
 42 H5       3.2800     6.4840    12.5200 H     1 Q101   0.1560 
 43 H3       2.6470     5.2460    10.4040 H     1 Q101   0.1600 
 44 H26      9.5450     9.4180    21.0600 H     1 Q101   0.1600 
 45 H24      7.2980     7.1750    23.9710 H     1 Q101   0.1630 
 46 H21      6.3900     5.7790    22.1940 H     1 Q101   0.1530 
 47 H2       3.3820     3.2940     8.8570 H     1 Q101   0.1720 
 48 H12      4.7340     4.8810    17.9220 H     1 Q101   0.0910 
 49 H1       5.9630     6.8890    16.2410 H     1 Q101   0.4670 
@<TRIPOS>BOND
  1   1   2  am  
  2   1   9  1   
  3   1  49  1   
  4   2  21  2   
  5   2  29  1   
  6   2  30  2   
  7   3  11  1   
  8   3  12  1   
  9   3  19  am  
 10   4   7  1   
 11   4   8  1   
 12   4  18  am  
 13   5  19  2   
 14   6  18  2   
 15   7  38  1   
 16   7  39  1   
 17   7  40  1   
 18   8  35  1   
 19   8  36  1   
 20   8  37  1   
 21   9  10  1   
 22   9  19  1   
 23   9  48  1   
 24  10  11  1   
 25  10  33  1   
 26  10  34  1   
 27  11  31  1   
 28  11  32  1   
 29  12  13  ar  
 30  12  14  ar  
 31  13  15  ar  
 32  13  46  1   
 33  14  16  ar  
 34  14  20  1   
 35  15  17  ar  
 36  15  45  1   
 37  16  17  ar  
 38  16  44  1   
 39  17  18  1   
 40  22  23  1   
 41  23  24  2   
 42  23  25  1   
 43  24  26  1   
 44  24  47  1   
 45  25  27  1   
 46  26  27  2   
 47  26  43  1   
 48  27  28  1   
 49  28  29  2   
 50  28  42  1   
 51  29  41  1   
@<TRIPOS>SUBSTRUCTURE
  1 Q101  19 GROUP 4 **** **** 0

# MOE 2011.10 (io_trps.svl 2011.10)

@<TRIPOS>MOLECULE
FXA101_78
49 51 1 0 0 
SMALL
USER_CHARGES


@<TRIPOS>ATOM
  1 N1       4.1130     8.2870    21.8330 N.am  1 Q101  -0.8960 
  2 S1       4.0730     8.9580    23.3020 S.o2  1 Q101   1.3220 
  3 N2       4.5170     5.3280    20.1170 N.am  1 Q101  -0.3970 
  4 N3       9.1490     1.8240    17.1130 N.am  1 Q101  -0.4840 
  5 O3       6.1110     6.2030    21.5320 O.2   1 Q101  -0.6040 
  6 O4       7.4170     1.8060    15.7200 O.2   1 Q101  -0.6060 
  7 C7       9.7420     2.6180    18.2010 C.3   1 Q101   0.0840 
  8 C8       9.9740     0.7700    16.5020 C.3   1 Q101   0.0840 
  9 C12      3.7710     6.8920    21.6770 C.3   1 Q101   0.1690 
 10 C13      2.6540     6.6450    20.6570 C.3   1 Q101  -0.1080 
 11 C14      3.0770     5.3850    19.9110 C.3   1 Q101   0.1020 
 12 C15      5.3780     4.5230    19.3040 C.ar  1 Q101   0.0330 
 13 C21      5.8390     4.9760    18.0760 C.ar  1 Q101  -0.1060 
 14 C22      5.7530     3.2520    19.7120 C.ar  1 Q101   0.1210 
 15 C24      6.6560     4.1950    17.2840 C.ar  1 Q101  -0.0920 
 16 C26      6.5700     2.4380    18.9440 C.ar  1 Q101  -0.1400 
 17 C27      7.0250     2.9300    17.7200 C.ar  1 Q101  -0.1150 
 18 C28      7.8930     2.1470    16.7910 C.2   1 Q101   0.6760 
 19 C50      4.9620     6.1180    21.1260 C.2   1 Q101   0.6950 
 20 F1       5.3020     2.8040    20.8950 F     1 Q101  -0.1400 
 21 O1       2.6790     9.0870    23.5920 O.2   1 Q101  -0.5930 
 22 CL1     11.3480     8.5270    24.8110 Cl    1 Q101  -0.0550 
 23 C1       9.6410     8.5120    24.5200 C.2   1 Q101   0.0330 
 24 C2       9.0190     8.6700    23.3270 C.2   1 Q101  -0.1460 
 25 S2       8.5660     8.2730    25.8400 S.3   1 Q101   0.0240 
 26 C3       7.6300     8.6050    23.4690 C.2   1 Q101  -0.1130 
 27 C4       7.2050     8.3970    24.7760 C.2   1 Q101  -0.0920 
 28 C5       5.7980     8.2960    25.1780 C.2   1 Q101   0.0810 
 29 C6       4.7920     7.8460    24.4280 C.2   1 Q101  -0.4200 
 30 O2       4.9130    10.1120    23.1420 O.2   1 Q101  -0.5930 
 31 H142     2.8380     5.4320    18.8450 H     1 Q101   0.0600 
 32 H141     2.6240     4.4910    20.3540 H     1 Q101   0.0600 
 33 H132     1.6730     6.5420    21.1300 H     1 Q101   0.0720 
 34 H131     2.5930     7.4840    19.9530 H     1 Q101   0.0720 
 35 H83     10.6270     1.2180    15.7570 H     1 Q101   0.0490 
 36 H82     10.5640     0.2810    17.2820 H     1 Q101   0.0490 
 37 H81      9.3190     0.0330    16.0420 H     1 Q101   0.0490 
 38 H73      9.1800     2.4240    19.1180 H     1 Q101   0.0490 
 39 H72     10.7940     2.3550    18.3390 H     1 Q101   0.0490 
 40 H71      9.6600     3.6840    17.9650 H     1 Q101   0.0490 
 41 H6       4.4050     6.8380    24.4620 H     1 Q101   0.1940 
 42 H5       5.6180     8.5810    26.2140 H     1 Q101   0.1560 
 43 H3       6.9400     8.6910    22.6350 H     1 Q101   0.1600 
 44 H26      6.8490     1.4550    19.2980 H     1 Q101   0.1600 
 45 H24      6.9700     4.5600    16.3160 H     1 Q101   0.1630 
 46 H21      5.5480     5.9580    17.7140 H     1 Q101   0.1530 
 47 H2       9.5220     8.8190    22.3820 H     1 Q101   0.1720 
 48 H12      3.4950     6.4160    22.6250 H     1 Q101   0.0910 
 49 H1       4.7960     8.6700    21.1740 H     1 Q101   0.4670 
@<TRIPOS>BOND
  1   1   2  am  
  2   1   9  1   
  3   1  49  1   
  4   2  21  2   
  5   2  29  1   
  6   2  30  2   
  7   3  11  1   
  8   3  12  1   
  9   3  19  am  
 10   4   7  1   
 11   4   8  1   
 12   4  18  am  
 13   5  19  2   
 14   6  18  2   
 15   7  38  1   
 16   7  39  1   
 17   7  40  1   
 18   8  35  1   
 19   8  36  1   
 20   8  37  1   
 21   9  10  1   
 22   9  19  1   
 23   9  48  1   
 24  10  11  1   
 25  10  33  1   
 26  10  34  1   
 27  11  31  1   
 28  11  32  1   
 29  12  13  ar  
 30  12  14  ar  
 31  13  15  ar  
 32  13  46  1   
 33  14  16  ar  
 34  14  20  1   
 35  15  17  ar  
 36  15  45  1   
 37  16  17  ar  
 38  16  44  1   
 39  17  18  1   
 40  22  23  1   
 41  23  24  2   
 42  23  25  1   
 43  24  26  1   
 44  24  47  1   
 45  25  27  1   
 46  26  27  2   
 47  26  43  1   
 48  27  28  1   
 49  28  29  2   
 50  28  42  1   
 51  29  41  1   
@<TRIPOS>SUBSTRUCTURE
  1 Q101   5 GROUP 4 **** **** 0

# MOE 2011.10 (io_trps.svl 2011.10)

@<TRIPOS>MOLECULE
FXA101_79
49 51 1 0 0 
SMALL
USER_CHARGES


@<TRIPOS>ATOM
  1 N1       2.3840     9.0240    20.4320 N.am  1 Q101  -0.8960 
  2 S1       1.0690     9.9590    20.3630 S.o2  1 Q101   1.3220 
  3 N2       4.8110     8.1700    22.7230 N.am  1 Q101  -0.3970 
  4 N3      10.6370     8.4110    25.5820 N.am  1 Q101  -0.4840 
  5 O3       4.0120    10.3150    22.4600 O.2   1 Q101  -0.6040 
  6 O4      10.3880    10.4730    24.7920 O.2   1 Q101  -0.6060 
  7 C7       9.8980     7.6370    26.5920 C.3   1 Q101   0.0840 
  8 C8      12.0530     8.0740    25.3580 C.3   1 Q101   0.0840 
  9 C12      2.7370     8.3820    21.6770 C.3   1 Q101   0.1690 
 10 C13      3.2270     6.9410    21.5060 C.3   1 Q101  -0.1080 
 11 C14      4.3780     6.7990    22.4960 C.3   1 Q101   0.1020 
 12 C15      6.0840     8.4890    23.2930 C.ar  1 Q101   0.0330 
 13 C21      7.2570     8.3360    22.5670 C.ar  1 Q101  -0.1060 
 14 C22      6.1830     8.9360    24.6020 C.ar  1 Q101   0.1210 
 15 C24      8.4870     8.6270    23.1210 C.ar  1 Q101  -0.0920 
 16 C26      7.4000     9.2380    25.1920 C.ar  1 Q101  -0.1400 
 17 C27      8.5580     9.0820    24.4300 C.ar  1 Q101  -0.1150 
 18 C28      9.9290     9.3540    24.9540 C.2   1 Q101   0.6760 
 19 C50      3.9120     9.1050    22.3260 C.2   1 Q101   0.6950 
 20 F1       5.0520     9.0770    25.3130 F     1 Q101  -0.1400 
 21 O1       1.0270    10.4090    19.0060 O.2   1 Q101  -0.5930 
 22 CL1     -3.2250    14.7450    21.7600 Cl    1 Q101  -0.0550 
 23 C1      -2.7060    13.1800    21.2300 C.2   1 Q101   0.0330 
 24 C2      -2.6930    12.7170    19.9570 C.2   1 Q101  -0.1460 
 25 S2      -2.1320    12.0480    22.3890 S.3   1 Q101   0.0240 
 26 C3      -2.2130    11.4060    19.9010 C.2   1 Q101  -0.1130 
 27 C4      -1.8630    10.8800    21.1390 C.2   1 Q101  -0.0920 
 28 C5      -1.3380     9.5240    21.3380 C.2   1 Q101   0.0810 
 29 C6      -0.3220     8.9660    20.6810 C.2   1 Q101  -0.4200 
 30 O2       1.2790    10.8770    21.4470 O.2   1 Q101  -0.5930 
 31 H142     5.1970     6.1920    22.0970 H     1 Q101   0.0600 
 32 H141     4.0340     6.3780    23.4470 H     1 Q101   0.0600 
 33 H132     2.4340     6.2080    21.6790 H     1 Q101   0.0720 
 34 H131     3.6000     6.7870    20.4860 H     1 Q101   0.0720 
 35 H83     12.6580     8.5690    26.1140 H     1 Q101   0.0490 
 36 H82     12.1760     6.9890    25.4210 H     1 Q101   0.0490 
 37 H81     12.3390     8.4040    24.3630 H     1 Q101   0.0490 
 38 H73      9.1050     7.0770    26.0880 H     1 Q101   0.0490 
 39 H72     10.5680     6.9540    27.1190 H     1 Q101   0.0490 
 40 H71      9.4330     8.3210    27.3100 H     1 Q101   0.0490 
 41 H6      -0.2990     7.9390    20.3450 H     1 Q101   0.1940 
 42 H5      -1.8280     8.9820    22.1470 H     1 Q101   0.1560 
 43 H3      -2.1040    10.8490    18.9750 H     1 Q101   0.1600 
 44 H26      7.4370     9.5920    26.2140 H     1 Q101   0.1600 
 45 H24      9.3860     8.4640    22.5430 H     1 Q101   0.1630 
 46 H21      7.2210     7.9660    21.5450 H     1 Q101   0.1530 
 47 H2      -3.0030    13.2830    19.0890 H     1 Q101   0.1720 
 48 H12      1.9180     8.3930    22.4060 H     1 Q101   0.0910 
 49 H1       3.1560     9.2740    19.8080 H     1 Q101   0.4670 
@<TRIPOS>BOND
  1   1   2  am  
  2   1   9  1   
  3   1  49  1   
  4   2  21  2   
  5   2  29  1   
  6   2  30  2   
  7   3  11  1   
  8   3  12  1   
  9   3  19  am  
 10   4   7  1   
 11   4   8  1   
 12   4  18  am  
 13   5  19  2   
 14   6  18  2   
 15   7  38  1   
 16   7  39  1   
 17   7  40  1   
 18   8  35  1   
 19   8  36  1   
 20   8  37  1   
 21   9  10  1   
 22   9  19  1   
 23   9  48  1   
 24  10  11  1   
 25  10  33  1   
 26  10  34  1   
 27  11  31  1   
 28  11  32  1   
 29  12  13  ar  
 30  12  14  ar  
 31  13  15  ar  
 32  13  46  1   
 33  14  16  ar  
 34  14  20  1   
 35  15  17  ar  
 36  15  45  1   
 37  16  17  ar  
 38  16  44  1   
 39  17  18  1   
 40  22  23  1   
 41  23  24  2   
 42  23  25  1   
 43  24  26  1   
 44  24  47  1   
 45  25  27  1   
 46  26  27  2   
 47  26  43  1   
 48  27  28  1   
 49  28  29  2   
 50  28  42  1   
 51  29  41  1   
@<TRIPOS>SUBSTRUCTURE
  1 Q101  19 GROUP 4 **** **** 0

# MOE 2011.10 (io_trps.svl 2011.10)

@<TRIPOS>MOLECULE
FXA101_80
49 51 1 0 0 
SMALL
USER_CHARGES


@<TRIPOS>ATOM
  1 N1       6.6960    10.3450    22.9220 N.am  1 Q101  -0.8960 
  2 S1       8.0190     9.5500    23.3980 S.o2  1 Q101   1.3220 
  3 N2       4.7620    10.8000    20.1070 N.am  1 Q101  -0.3970 
  4 N3       2.6120    14.2580    15.0100 N.am  1 Q101  -0.4840 
  5 O3       7.0640    10.9020    20.0960 O.2   1 Q101  -0.6040 
  6 O4       4.8170    14.1880    14.7390 O.2   1 Q101  -0.6060 
  7 C7       1.5150    13.8310    15.8930 C.3   1 Q101   0.0840 
  8 C8       2.2630    15.0220    13.8010 C.3   1 Q101   0.0840 
  9 C12      5.8530     9.7750    21.8960 C.3   1 Q101   0.1690 
 10 C13      4.3570     9.8570    22.2160 C.3   1 Q101  -0.1080 
 11 C14      3.6910    10.1980    20.8880 C.3   1 Q101   0.1020 
 12 C15      4.5120    11.5920    18.9430 C.ar  1 Q101   0.0330 
 13 C21      4.4140    11.0130    17.6850 C.ar  1 Q101  -0.1060 
 14 C22      4.3870    12.9700    19.0360 C.ar  1 Q101   0.1210 
 15 C24      4.1900    11.7780    16.5590 C.ar  1 Q101  -0.0920 
 16 C26      4.1620    13.7710    17.9280 C.ar  1 Q101  -0.1400 
 17 C27      4.0580    13.1540    16.6810 C.ar  1 Q101  -0.1150 
 18 C28      3.8370    13.9040    15.4090 C.2   1 Q101   0.6760 
 19 C50      6.0040    10.5580    20.5980 C.2   1 Q101   0.6950 
 20 F1       4.4900    13.5370    20.2490 F     1 Q101  -0.1400 
 21 O1       9.0270    10.5620    23.4800 O.2   1 Q101  -0.5930 
 22 CL1     13.8680     7.3760    26.7050 Cl    1 Q101  -0.0550 
 23 C1      12.3440     7.6720    25.9390 C.2   1 Q101   0.0330 
 24 C2      12.1430     8.1680    24.6940 C.2   1 Q101  -0.1460 
 25 S2      10.8920     7.3180    26.7900 S.3   1 Q101   0.0240 
 26 C3      10.7800     8.2770    24.4080 C.2   1 Q101  -0.1130 
 27 C4       9.9500     7.8610    25.4420 C.2   1 Q101  -0.0920 
 28 C5       8.4840     7.8830    25.3810 C.2   1 Q101   0.0810 
 29 C6       7.7250     8.9040    24.9840 C.2   1 Q101  -0.4200 
 30 O2       8.1070     8.4850    22.4380 O.2   1 Q101  -0.5930 
 31 H142     2.8570    10.8960    21.0080 H     1 Q101   0.0600 
 32 H141     3.3470     9.2940    20.3740 H     1 Q101   0.0600 
 33 H132     3.9720     8.9300    22.6510 H     1 Q101   0.0720 
 34 H131     4.1690    10.6620    22.9380 H     1 Q101   0.0720 
 35 H83      1.9620    14.3290    13.0180 H     1 Q101   0.0490 
 36 H82      1.4460    15.7090    14.0370 H     1 Q101   0.0490 
 37 H81      3.1300    15.5990    13.4880 H     1 Q101   0.0490 
 38 H73      1.6310    14.3340    16.8570 H     1 Q101   0.0490 
 39 H72      0.5470    14.0780    15.4520 H     1 Q101   0.0490 
 40 H71      1.5760    12.7500    16.0590 H     1 Q101   0.0490 
 41 H6       6.9350     9.3470    25.5730 H     1 Q101   0.1940 
 42 H5       8.0230     6.9330    25.6500 H     1 Q101   0.1560 
 43 H3      10.3970     8.6370    23.4580 H     1 Q101   0.1600 
 44 H26      4.0620    14.8420    18.0400 H     1 Q101   0.1600 
 45 H24      4.1540    11.3030    15.5880 H     1 Q101   0.1630 
 46 H21      4.5290     9.9380    17.5700 H     1 Q101   0.1530 
 47 H2      12.9280     8.4390    24.0020 H     1 Q101   0.1720 
 48 H12      6.1100     8.7340    21.6690 H     1 Q101   0.0910 
 49 H1       6.7330    11.3660    22.9720 H     1 Q101   0.4670 
@<TRIPOS>BOND
  1   1   2  am  
  2   1   9  1   
  3   1  49  1   
  4   2  21  2   
  5   2  29  1   
  6   2  30  2   
  7   3  11  1   
  8   3  12  1   
  9   3  19  am  
 10   4   7  1   
 11   4   8  1   
 12   4  18  am  
 13   5  19  2   
 14   6  18  2   
 15   7  38  1   
 16   7  39  1   
 17   7  40  1   
 18   8  35  1   
 19   8  36  1   
 20   8  37  1   
 21   9  10  1   
 22   9  19  1   
 23   9  48  1   
 24  10  11  1   
 25  10  33  1   
 26  10  34  1   
 27  11  31  1   
 28  11  32  1   
 29  12  13  ar  
 30  12  14  ar  
 31  13  15  ar  
 32  13  46  1   
 33  14  16  ar  
 34  14  20  1   
 35  15  17  ar  
 36  15  45  1   
 37  16  17  ar  
 38  16  44  1   
 39  17  18  1   
 40  22  23  1   
 41  23  24  2   
 42  23  25  1   
 43  24  26  1   
 44  24  47  1   
 45  25  27  1   
 46  26  27  2   
 47  26  43  1   
 48  27  28  1   
 49  28  29  2   
 50  28  42  1   
 51  29  41  1   
@<TRIPOS>SUBSTRUCTURE
  1 Q101  19 GROUP 4 **** **** 0

# MOE 2011.10 (io_trps.svl 2011.10)

@<TRIPOS>MOLECULE
FXA101_81
49 51 1 0 0 
SMALL
USER_CHARGES


@<TRIPOS>ATOM
  1 N1       6.1880     7.3500    23.6530 N.am  1 Q101  -0.8960 
  2 S1       5.3640     8.3730    24.5930 S.o2  1 Q101   1.3220 
  3 N2       7.0020     6.1750    20.5180 N.am  1 Q101  -0.3970 
  4 N3       9.2230     1.1420    17.0960 N.am  1 Q101  -0.4840 
  5 O3       5.2480     5.3540    21.7660 O.2   1 Q101  -0.6040 
  6 O4       7.0280     0.9850    16.7860 O.2   1 Q101  -0.6060 
  7 C7       9.5420     0.6820    15.7350 C.3   1 Q101   0.0840 
  8 C8      10.2890     1.0800    18.1100 C.3   1 Q101   0.0840 
  9 C12      6.2080     7.5550    22.2230 C.3   1 Q101   0.1690 
 10 C13      7.5300     8.1290    21.7040 C.3   1 Q101  -0.1080 
 11 C14      7.7870     7.3950    20.3920 C.3   1 Q101   0.1020 
 12 C15      7.2240     5.0300    19.6900 C.ar  1 Q101   0.0330 
 13 C21      7.6000     3.8100    20.2340 C.ar  1 Q101  -0.1060 
 14 C22      7.0960     5.1160    18.3120 C.ar  1 Q101   0.1210 
 15 C24      7.8300     2.7080    19.4340 C.ar  1 Q101  -0.0920 
 16 C26      7.3210     4.0330    17.4770 C.ar  1 Q101  -0.1400 
 17 C27      7.6860     2.8190    18.0600 C.ar  1 Q101  -0.1150 
 18 C28      7.9750     1.5840    17.2710 C.2   1 Q101   0.6760 
 19 C50      6.0660     6.2210    21.4990 C.2   1 Q101   0.6950 
 20 F1       6.7430     6.2970    17.7780 F     1 Q101  -0.1400 
 21 O1       5.8100     9.6680    24.1800 O.2   1 Q101  -0.5930 
 22 CL1     -2.3720     8.6580    22.7850 Cl    1 Q101  -0.0550 
 23 C1      -0.8880     9.1720    23.5130 C.2   1 Q101   0.0330 
 24 C2      -0.6850    10.3000    24.2340 C.2   1 Q101  -0.1460 
 25 S2       0.5140     8.1900    23.3460 S.3   1 Q101   0.0240 
 26 C3       0.6410    10.3930    24.6660 C.2   1 Q101  -0.1130 
 27 C4       1.4400     9.3270    24.2670 C.2   1 Q101  -0.0920 
 28 C5       2.8650     9.2000    24.5940 C.2   1 Q101   0.0810 
 29 C6       3.6730     8.2050    24.2290 C.2   1 Q101  -0.4200 
 30 O2       5.6380     7.8750    25.9120 O.2   1 Q101  -0.5930 
 31 H142     8.8460     7.1630    20.2460 H     1 Q101   0.0600 
 32 H141     7.4110     7.9670    19.5380 H     1 Q101   0.0600 
 33 H132     7.4910     9.2140    21.5740 H     1 Q101   0.0720 
 34 H131     8.3400     7.9110    22.4100 H     1 Q101   0.0720 
 35 H83     10.3370     0.0710    18.5120 H     1 Q101   0.0490 
 36 H82     11.2410     1.3520    17.6450 H     1 Q101   0.0490 
 37 H81     10.0650     1.7950    18.8980 H     1 Q101   0.0490 
 38 H73      9.4690     1.5340    15.0550 H     1 Q101   0.0490 
 39 H72     10.5470     0.2540    15.6990 H     1 Q101   0.0490 
 40 H71      8.8120    -0.0730    15.4220 H     1 Q101   0.0490 
 41 H6       3.3480     7.3000    23.7360 H     1 Q101   0.1940 
 42 H5       3.2630    10.0500    25.1480 H     1 Q101   0.1560 
 43 H3       1.0150    11.2120    25.2720 H     1 Q101   0.1600 
 44 H26      7.2040     4.1360    16.4070 H     1 Q101   0.1600 
 45 H24      8.1570     1.7800    19.8840 H     1 Q101   0.1630 
 46 H21      7.7320     3.7100    21.3080 H     1 Q101   0.1530 
 47 H2      -1.4450    11.0360    24.4590 H     1 Q101   0.1720 
 48 H12      5.3850     8.1920    21.8760 H     1 Q101   0.0910 
 49 H1       6.2580     6.3830    23.9800 H     1 Q101   0.4670 
@<TRIPOS>BOND
  1   1   2  am  
  2   1   9  1   
  3   1  49  1   
  4   2  21  2   
  5   2  29  1   
  6   2  30  2   
  7   3  11  1   
  8   3  12  1   
  9   3  19  am  
 10   4   7  1   
 11   4   8  1   
 12   4  18  am  
 13   5  19  2   
 14   6  18  2   
 15   7  38  1   
 16   7  39  1   
 17   7  40  1   
 18   8  35  1   
 19   8  36  1   
 20   8  37  1   
 21   9  10  1   
 22   9  19  1   
 23   9  48  1   
 24  10  11  1   
 25  10  33  1   
 26  10  34  1   
 27  11  31  1   
 28  11  32  1   
 29  12  13  ar  
 30  12  14  ar  
 31  13  15  ar  
 32  13  46  1   
 33  14  16  ar  
 34  14  20  1   
 35  15  17  ar  
 36  15  45  1   
 37  16  17  ar  
 38  16  44  1   
 39  17  18  1   
 40  22  23  1   
 41  23  24  2   
 42  23  25  1   
 43  24  26  1   
 44  24  47  1   
 45  25  27  1   
 46  26  27  2   
 47  26  43  1   
 48  27  28  1   
 49  28  29  2   
 50  28  42  1   
 51  29  41  1   
@<TRIPOS>SUBSTRUCTURE
  1 Q101  19 GROUP 4 **** **** 0

# MOE 2011.10 (io_trps.svl 2011.10)

@<TRIPOS>MOLECULE
FXA101_82
49 51 1 0 0 
SMALL
USER_CHARGES


@<TRIPOS>ATOM
  1 N1       5.1070     5.4400    11.6070 N.am  1 Q101  -0.8960 
  2 S1       4.7540     4.2220    10.6070 S.o2  1 Q101   1.3220 
  3 N2       4.1920     7.6510    14.0850 N.am  1 Q101  -0.3970 
  4 N3       4.2460    13.9260    15.9700 N.am  1 Q101  -0.4840 
  5 O3       4.2950     8.2170    11.8530 O.2   1 Q101  -0.6040 
  6 O4       5.7450    12.8990    17.2510 O.2   1 Q101  -0.6060 
  7 C7       3.6270    14.7120    17.0490 C.3   1 Q101   0.0840 
  8 C8       4.0900    14.4100    14.5890 C.3   1 Q101   0.0840 
  9 C12      4.1200     5.8840    12.5640 C.3   1 Q101   0.1690 
 10 C13      4.3300     5.3130    13.9700 C.3   1 Q101  -0.1080 
 11 C14      4.0120     6.4680    14.9130 C.3   1 Q101   0.1020 
 12 C15      4.3530     8.9600    14.6400 C.ar  1 Q101   0.0330 
 13 C21      5.6090     9.4620    14.9500 C.ar  1 Q101  -0.1060 
 14 C22      3.2500     9.7560    14.9100 C.ar  1 Q101   0.1210 
 15 C24      5.7650    10.7180    15.5000 C.ar  1 Q101  -0.0920 
 16 C26      3.3670    11.0210    15.4640 C.ar  1 Q101  -0.1400 
 17 C27      4.6460    11.4980    15.7520 C.ar  1 Q101  -0.1150 
 18 C28      4.9050    12.8330    16.3670 C.2   1 Q101   0.6760 
 19 C50      4.2150     7.3940    12.7530 C.2   1 Q101   0.6950 
 20 F1       2.0300     9.2720    14.6220 F     1 Q101  -0.1400 
 21 O1       5.9740     3.9830     9.8990 O.2   1 Q101  -0.5930 
 22 CL1      3.8630    -2.4280    14.8820 Cl    1 Q101  -0.0550 
 23 C1       4.7070    -1.0960    14.1660 C.2   1 Q101   0.0330 
 24 C2       6.0350    -0.8410    14.2420 C.2   1 Q101  -0.1460 
 25 S2       3.8280     0.0590    13.2440 S.3   1 Q101   0.0240 
 26 C3       6.3660     0.3240    13.5450 C.2   1 Q101  -0.1130 
 27 C4       5.2820     0.9480    12.9410 C.2   1 Q101  -0.0920 
 28 C5       5.3750     2.1860    12.1580 C.2   1 Q101   0.0810 
 29 C6       4.3660     2.8250    11.5670 C.2   1 Q101  -0.4200 
 30 O2       3.5800     4.6990     9.9320 O.2   1 Q101  -0.5930 
 31 H142     4.6800     6.4940    15.7800 H     1 Q101   0.0600 
 32 H141     2.9700     6.4300    15.2490 H     1 Q101   0.0600 
 33 H132     3.7070     4.4340    14.1600 H     1 Q101   0.0720 
 34 H131     5.3760     5.0090    14.1030 H     1 Q101   0.0720 
 35 H83      3.1240    14.0880    14.2080 H     1 Q101   0.0490 
 36 H82      4.1570    15.5020    14.5840 H     1 Q101   0.0490 
 37 H81      4.8950    14.0050    13.9810 H     1 Q101   0.0490 
 38 H73      4.4200    15.1050    17.6910 H     1 Q101   0.0490 
 39 H72      3.0350    15.5320    16.6360 H     1 Q101   0.0490 
 40 H71      2.9830    14.0640    17.6530 H     1 Q101   0.0490 
 41 H6       3.3290     2.5280    11.6320 H     1 Q101   0.1940 
 42 H5       6.3790     2.6080    12.1280 H     1 Q101   0.1560 
 43 H3       7.3810     0.7030    13.4640 H     1 Q101   0.1600 
 44 H26      2.4840    11.6170    15.6540 H     1 Q101   0.1600 
 45 H24      6.7540    11.0670    15.7640 H     1 Q101   0.1630 
 46 H21      6.4960     8.8580    14.7720 H     1 Q101   0.1530 
 47 H2       6.7550    -1.4560    14.7640 H     1 Q101   0.1720 
 48 H12      3.0940     5.6690    12.2440 H     1 Q101   0.0910 
 49 H1       5.7570     6.1470    11.2540 H     1 Q101   0.4670 
@<TRIPOS>BOND
  1   1   2  am  
  2   1   9  1   
  3   1  49  1   
  4   2  21  2   
  5   2  29  1   
  6   2  30  2   
  7   3  11  1   
  8   3  12  1   
  9   3  19  am  
 10   4   7  1   
 11   4   8  1   
 12   4  18  am  
 13   5  19  2   
 14   6  18  2   
 15   7  38  1   
 16   7  39  1   
 17   7  40  1   
 18   8  35  1   
 19   8  36  1   
 20   8  37  1   
 21   9  10  1   
 22   9  19  1   
 23   9  48  1   
 24  10  11  1   
 25  10  33  1   
 26  10  34  1   
 27  11  31  1   
 28  11  32  1   
 29  12  13  ar  
 30  12  14  ar  
 31  13  15  ar  
 32  13  46  1   
 33  14  16  ar  
 34  14  20  1   
 35  15  17  ar  
 36  15  45  1   
 37  16  17  ar  
 38  16  44  1   
 39  17  18  1   
 40  22  23  1   
 41  23  24  2   
 42  23  25  1   
 43  24  26  1   
 44  24  47  1   
 45  25  27  1   
 46  26  27  2   
 47  26  43  1   
 48  27  28  1   
 49  28  29  2   
 50  28  42  1   
 51  29  41  1   
@<TRIPOS>SUBSTRUCTURE
  1 Q101   3 GROUP 4 **** **** 0

# MOE 2011.10 (io_trps.svl 2011.10)

@<TRIPOS>MOLECULE
FXA101_83
49 51 1 0 0 
SMALL
USER_CHARGES


@<TRIPOS>ATOM
  1 N1       3.1540     6.3520    15.4820 N.am  1 Q101  -0.8960 
  2 S1       2.9500     5.4420    14.1640 S.o2  1 Q101   1.3220 
  3 N2       5.1750     8.2720    17.5060 N.am  1 Q101  -0.3970 
  4 N3       7.1780     8.8920    23.7140 N.am  1 Q101  -0.4840 
  5 O3       4.8500     6.0110    17.8130 O.2   1 Q101  -0.6040 
  6 O4       6.4190    10.8950    23.1210 O.2   1 Q101  -0.6060 
  7 C7       8.0120     9.5180    24.7510 C.3   1 Q101   0.0840 
  8 C8       7.0050     7.4300    23.7600 C.3   1 Q101   0.0840 
  9 C12      4.3900     7.0770    15.6620 C.3   1 Q101   0.1690 
 10 C13      4.2710     8.5750    15.3640 C.3   1 Q101  -0.1080 
 11 C14      5.1140     9.2570    16.4360 C.3   1 Q101   0.1020 
 12 C15      5.5510     8.6130    18.8430 C.ar  1 Q101   0.0330 
 13 C21      4.7650     9.4520    19.6200 C.ar  1 Q101  -0.1060 
 14 C22      6.7320     8.1340    19.3920 C.ar  1 Q101   0.1210 
 15 C24      5.1350     9.7950    20.9050 C.ar  1 Q101  -0.0920 
 16 C26      7.1370     8.4580    20.6770 C.ar  1 Q101  -0.1400 
 17 C27      6.3160     9.2950    21.4340 C.ar  1 Q101  -0.1150 
 18 C28      6.6480     9.7340    22.8220 C.2   1 Q101   0.6760 
 19 C50      4.8250     7.0180    17.1220 C.2   1 Q101   0.6950 
 20 F1       7.5020     7.3300    18.6410 F     1 Q101  -0.1400 
 21 O1       3.3990     6.2720    13.0890 O.2   1 Q101  -0.5930 
 22 CL1     -0.5180     3.5420    18.8300 Cl    1 Q101  -0.0550 
 23 C1       0.5110     3.1740    17.4860 C.2   1 Q101   0.0330 
 24 C2       0.2060     2.4000    16.4170 C.2   1 Q101  -0.1460 
 25 S2       2.0990     3.8330    17.4390 S.3   1 Q101   0.0240 
 26 C3       1.2810     2.3220    15.5280 C.2   1 Q101  -0.1130 
 27 C4       2.4000     3.0410    15.9290 C.2   1 Q101  -0.0920 
 28 C5       3.6520     3.1100    15.1660 C.2   1 Q101   0.0810 
 29 C6       3.9920     4.0560    14.2910 C.2   1 Q101  -0.4200 
 30 O2       1.5760     5.0380    14.2710 O.2   1 Q101  -0.5930 
 31 H142     4.6620    10.1880    16.7900 H     1 Q101   0.0600 
 32 H141     6.1300     9.4500    16.0780 H     1 Q101   0.0600 
 33 H132     4.6000     8.8260    14.3510 H     1 Q101   0.0720 
 34 H131     3.2260     8.8980    15.4580 H     1 Q101   0.0720 
 35 H83      7.8650     6.9570    23.2910 H     1 Q101   0.0490 
 36 H82      6.9180     7.1150    24.8040 H     1 Q101   0.0490 
 37 H81      6.0900     7.1680    23.2350 H     1 Q101   0.0490 
 38 H73      7.3790    10.1740    25.3550 H     1 Q101   0.0490 
 39 H72      8.4790     8.7580    25.3820 H     1 Q101   0.0490 
 40 H71      8.7890    10.1290    24.2790 H     1 Q101   0.0490 
 41 H6       4.8750     4.0280    13.6690 H     1 Q101   0.1940 
 42 H5       4.3560     2.3160    15.4110 H     1 Q101   0.1560 
 43 H3       1.2450     1.7640    14.5960 H     1 Q101   0.1600 
 44 H26      8.0610     8.0600    21.0740 H     1 Q101   0.1600 
 45 H24      4.5200    10.4790    21.4740 H     1 Q101   0.1630 
 46 H21      3.8440     9.8640    19.2160 H     1 Q101   0.1530 
 47 H2      -0.7440     1.9090    16.2600 H     1 Q101   0.1720 
 48 H12      5.2140     6.6630    15.0700 H     1 Q101   0.0910 
 49 H1       2.6740     6.0410    16.3310 H     1 Q101   0.4670 
@<TRIPOS>BOND
  1   1   2  am  
  2   1   9  1   
  3   1  49  1   
  4   2  21  2   
  5   2  29  1   
  6   2  30  2   
  7   3  11  1   
  8   3  12  1   
  9   3  19  am  
 10   4   7  1   
 11   4   8  1   
 12   4  18  am  
 13   5  19  2   
 14   6  18  2   
 15   7  38  1   
 16   7  39  1   
 17   7  40  1   
 18   8  35  1   
 19   8  36  1   
 20   8  37  1   
 21   9  10  1   
 22   9  19  1   
 23   9  48  1   
 24  10  11  1   
 25  10  33  1   
 26  10  34  1   
 27  11  31  1   
 28  11  32  1   
 29  12  13  ar  
 30  12  14  ar  
 31  13  15  ar  
 32  13  46  1   
 33  14  16  ar  
 34  14  20  1   
 35  15  17  ar  
 36  15  45  1   
 37  16  17  ar  
 38  16  44  1   
 39  17  18  1   
 40  22  23  1   
 41  23  24  2   
 42  23  25  1   
 43  24  26  1   
 44  24  47  1   
 45  25  27  1   
 46  26  27  2   
 47  26  43  1   
 48  27  28  1   
 49  28  29  2   
 50  28  42  1   
 51  29  41  1   
@<TRIPOS>SUBSTRUCTURE
  1 Q101   5 GROUP 4 **** **** 0

# MOE 2011.10 (io_trps.svl 2011.10)

@<TRIPOS>MOLECULE
FXA101_84
49 51 1 0 0 
SMALL
USER_CHARGES


@<TRIPOS>ATOM
  1 N1       6.1680    10.6810    18.4980 N.am  1 Q101  -0.8960 
  2 S1       5.2440    11.8940    17.9650 S.o2  1 Q101   1.3220 
  3 N2       7.0150     9.1630    21.4720 N.am  1 Q101  -0.3970 
  4 N3      11.0060     7.7840    26.4160 N.am  1 Q101  -0.4840 
  5 O3       6.9110    11.4490    21.1970 O.2   1 Q101  -0.6040 
  6 O4      11.1870     9.9900    26.2160 O.2   1 Q101  -0.6060 
  7 C7       9.9550     7.1560    27.2320 C.3   1 Q101   0.0840 
  8 C8      12.2950     7.0840    26.2970 C.3   1 Q101   0.0840 
  9 C12      5.7580     9.9330    19.6650 C.3   1 Q101   0.1690 
 10 C13      5.9480     8.4200    19.5210 C.3   1 Q101  -0.1080 
 11 C14      6.4510     7.9570    20.8840 C.3   1 Q101   0.1020 
 12 C15      7.9160     9.1260    22.5830 C.ar  1 Q101   0.0330 
 13 C21      9.2910     9.1450    22.3960 C.ar  1 Q101  -0.1060 
 14 C22      7.4370     9.0430    23.8820 C.ar  1 Q101   0.1210 
 15 C24     10.1620     9.0930    23.4650 C.ar  1 Q101  -0.0920 
 16 C26      8.2800     8.9880    24.9800 C.ar  1 Q101  -0.1400 
 17 C27      9.6570     9.0200    24.7550 C.ar  1 Q101  -0.1150 
 18 C28     10.6700     8.9470    25.8500 C.2   1 Q101   0.6760 
 19 C50      6.6260    10.3090    20.8600 C.2   1 Q101   0.6950 
 20 F1       6.1080     9.0150    24.0690 F     1 Q101  -0.1400 
 21 O1       5.8830    12.3190    16.7580 O.2   1 Q101  -0.5930 
 22 CL1      2.0190    17.5760    16.9470 Cl    1 Q101  -0.0550 
 23 C1       2.3660    15.8870    16.7920 C.2   1 Q101   0.0330 
 24 C2       2.9110    15.2650    15.7190 C.2   1 Q101  -0.1460 
 25 S2       2.0120    14.8330    18.1030 S.3   1 Q101   0.0240 
 26 C3       3.0460    13.8920    15.9460 C.2   1 Q101  -0.1130 
 27 C4       2.6010    13.4800    17.1970 C.2   1 Q101  -0.0920 
 28 C5       2.6350    12.0900    17.6660 C.2   1 Q101   0.0810 
 29 C6       3.6720    11.2560    17.5880 C.2   1 Q101  -0.4200 
 30 O2       5.1660    12.7550    19.1110 O.2   1 Q101  -0.5930 
 31 H142     7.2090     7.1720    20.8020 H     1 Q101   0.0600 
 32 H141     5.6250     7.6120    21.5150 H     1 Q101   0.0600 
 33 H132     5.0270     7.9110    19.2200 H     1 Q101   0.0720 
 34 H131     6.7060     8.2040    18.7580 H     1 Q101   0.0720 
 35 H83     12.9020     7.3100    27.1710 H     1 Q101   0.0490 
 36 H82     12.1120     6.0080    26.2270 H     1 Q101   0.0490 
 37 H81     12.7930     7.4160    25.3900 H     1 Q101   0.0490 
 38 H73      9.1170     6.8960    26.5790 H     1 Q101   0.0490 
 39 H72     10.3380     6.2620    27.7300 H     1 Q101   0.0490 
 40 H71      9.5980     7.8680    27.9830 H     1 Q101   0.0490 
 41 H6       3.6000    10.2120    17.3200 H     1 Q101   0.1940 
 42 H5       1.7180    11.7750    18.1620 H     1 Q101   0.1560 
 43 H3       3.4750    13.2070    15.2210 H     1 Q101   0.1600 
 44 H26      7.8710     8.9310    25.9800 H     1 Q101   0.1600 
 45 H24     11.2280     9.0730    23.2860 H     1 Q101   0.1630 
 46 H21      9.7030     9.1870    21.3900 H     1 Q101   0.1530 
 47 H2       3.2130    15.7570    14.8050 H     1 Q101   0.1720 
 48 H12      4.7190    10.1340    19.9520 H     1 Q101   0.0910 
 49 H1       7.1740    10.7680    18.3370 H     1 Q101   0.4670 
@<TRIPOS>BOND
  1   1   2  am  
  2   1   9  1   
  3   1  49  1   
  4   2  21  2   
  5   2  29  1   
  6   2  30  2   
  7   3  11  1   
  8   3  12  1   
  9   3  19  am  
 10   4   7  1   
 11   4   8  1   
 12   4  18  am  
 13   5  19  2   
 14   6  18  2   
 15   7  38  1   
 16   7  39  1   
 17   7  40  1   
 18   8  35  1   
 19   8  36  1   
 20   8  37  1   
 21   9  10  1   
 22   9  19  1   
 23   9  48  1   
 24  10  11  1   
 25  10  33  1   
 26  10  34  1   
 27  11  31  1   
 28  11  32  1   
 29  12  13  ar  
 30  12  14  ar  
 31  13  15  ar  
 32  13  46  1   
 33  14  16  ar  
 34  14  20  1   
 35  15  17  ar  
 36  15  45  1   
 37  16  17  ar  
 38  16  44  1   
 39  17  18  1   
 40  22  23  1   
 41  23  24  2   
 42  23  25  1   
 43  24  26  1   
 44  24  47  1   
 45  25  27  1   
 46  26  27  2   
 47  26  43  1   
 48  27  28  1   
 49  28  29  2   
 50  28  42  1   
 51  29  41  1   
@<TRIPOS>SUBSTRUCTURE
  1 Q101  19 GROUP 4 **** **** 0

# MOE 2011.10 (io_trps.svl 2011.10)

@<TRIPOS>MOLECULE
FXA101_85
49 51 1 0 0 
SMALL
USER_CHARGES


@<TRIPOS>ATOM
  1 N1      -0.3570     5.0010    24.2200 N.am  1 Q101  -0.8960 
  2 S1      -0.9860     3.5190    24.3550 S.o2  1 Q101   1.3220 
  3 N2       2.2480     6.7770    22.8300 N.am  1 Q101  -0.3970 
  4 N3       8.2340     8.8290    24.4100 N.am  1 Q101  -0.4840 
  5 O3       2.5460     4.9510    24.2050 O.2   1 Q101  -0.6040 
  6 O4       7.3600    10.5200    23.2620 O.2   1 Q101  -0.6060 
  7 C7       9.5670     8.8980    23.7920 C.3   1 Q101   0.0840 
  8 C8       8.1180     8.1730    25.7230 C.3   1 Q101   0.0840 
  9 C12      0.4250     5.3380    23.0530 C.3   1 Q101   0.1690 
 10 C13     -0.0420     6.6180    22.3510 C.3   1 Q101  -0.1080 
 11 C14      1.2410     7.3270    21.9340 C.3   1 Q101   0.1020 
 12 C15      3.5130     7.4080    23.0440 C.ar  1 Q101   0.0330 
 13 C21      3.7170     8.2720    24.1120 C.ar  1 Q101  -0.1060 
 14 C22      4.5680     7.1960    22.1690 C.ar  1 Q101   0.1210 
 15 C24      4.9320     8.8940    24.3090 C.ar  1 Q101  -0.0920 
 16 C26      5.8020     7.8040    22.3340 C.ar  1 Q101  -0.1400 
 17 C27      5.9750     8.6570    23.4250 C.ar  1 Q101  -0.1150 
 18 C28      7.2470     9.3870    23.7030 C.2   1 Q101   0.6760 
 19 C50      1.8660     5.6340    23.4540 C.2   1 Q101   0.6950 
 20 F1       4.3750     6.3700    21.1280 F     1 Q101  -0.1400 
 21 O1      -1.9950     3.4710    23.3430 O.2   1 Q101  -0.5930 
 22 CL1      3.5770    -2.6000    22.1770 Cl    1 Q101  -0.0550 
 23 C1       2.4080    -1.7510    23.1310 C.2   1 Q101   0.0330 
 24 C2       1.7190    -2.2360    24.1920 C.2   1 Q101  -0.1460 
 25 S2       2.0380    -0.1160    22.7480 S.3   1 Q101   0.0240 
 26 C3       0.8560    -1.2700    24.7180 C.2   1 Q101  -0.1130 
 27 C4       0.8980    -0.0520    24.0490 C.2   1 Q101  -0.0920 
 28 C5       0.0830     1.1140    24.4120 C.2   1 Q101   0.0810 
 29 C6       0.2570     2.3630    23.9810 C.2   1 Q101  -0.4200 
 30 O2      -1.3240     3.4490    25.7490 O.2   1 Q101  -0.5930 
 31 H142     1.1720     8.4130    22.0460 H     1 Q101   0.0600 
 32 H141     1.5150     7.0770    20.9040 H     1 Q101   0.0600 
 33 H132    -0.7000     6.4110    21.5020 H     1 Q101   0.0720 
 34 H131    -0.6000     7.2520    23.0520 H     1 Q101   0.0720 
 35 H83      8.0560     7.0970    25.5770 H     1 Q101   0.0490 
 36 H82      8.9940     8.4260    26.3270 H     1 Q101   0.0490 
 37 H81      7.2260     8.5430    26.2230 H     1 Q101   0.0490 
 38 H73      9.8610     9.9480    23.7170 H     1 Q101   0.0490 
 39 H72     10.2960     8.3430    24.3860 H     1 Q101   0.0490 
 40 H71      9.5250     8.4800    22.7800 H     1 Q101   0.0490 
 41 H6       1.1200     2.7080    23.4300 H     1 Q101   0.1940 
 42 H5      -0.7610     0.8720    25.0560 H     1 Q101   0.1560 
 43 H3       0.2220    -1.4430    25.5820 H     1 Q101   0.1600 
 44 H26      6.6050     7.6080    21.6360 H     1 Q101   0.1600 
 45 H24      5.0500     9.5890    25.1300 H     1 Q101   0.1630 
 46 H21      2.9060     8.4800    24.8060 H     1 Q101   0.1530 
 47 H2       1.8210    -3.2350    24.5930 H     1 Q101   0.1720 
 48 H12      0.4610     4.5250    22.3180 H     1 Q101   0.0910 
 49 H1      -0.1090     5.4740    25.0930 H     1 Q101   0.4670 
@<TRIPOS>BOND
  1   1   2  am  
  2   1   9  1   
  3   1  49  1   
  4   2  21  2   
  5   2  29  1   
  6   2  30  2   
  7   3  11  1   
  8   3  12  1   
  9   3  19  am  
 10   4   7  1   
 11   4   8  1   
 12   4  18  am  
 13   5  19  2   
 14   6  18  2   
 15   7  38  1   
 16   7  39  1   
 17   7  40  1   
 18   8  35  1   
 19   8  36  1   
 20   8  37  1   
 21   9  10  1   
 22   9  19  1   
 23   9  48  1   
 24  10  11  1   
 25  10  33  1   
 26  10  34  1   
 27  11  31  1   
 28  11  32  1   
 29  12  13  ar  
 30  12  14  ar  
 31  13  15  ar  
 32  13  46  1   
 33  14  16  ar  
 34  14  20  1   
 35  15  17  ar  
 36  15  45  1   
 37  16  17  ar  
 38  16  44  1   
 39  17  18  1   
 40  22  23  1   
 41  23  24  2   
 42  23  25  1   
 43  24  26  1   
 44  24  47  1   
 45  25  27  1   
 46  26  27  2   
 47  26  43  1   
 48  27  28  1   
 49  28  29  2   
 50  28  42  1   
 51  29  41  1   
@<TRIPOS>SUBSTRUCTURE
  1 Q101   5 GROUP 4 **** **** 0

# MOE 2011.10 (io_trps.svl 2011.10)

@<TRIPOS>MOLECULE
FXA101_86
49 51 1 0 0 
SMALL
USER_CHARGES


@<TRIPOS>ATOM
  1 N1       5.1170     8.5880    19.0390 N.am  1 Q101  -0.8960 
  2 S1       4.0910     8.1860    17.8580 S.o2  1 Q101   1.3220 
  3 N2       6.6120     7.6890    22.0100 N.am  1 Q101  -0.3970 
  4 N3      11.4940     7.8950    26.2960 N.am  1 Q101  -0.4840 
  5 O3       5.9590     9.8440    21.5180 O.2   1 Q101  -0.6040 
  6 O4      10.8360    10.0140    26.1760 O.2   1 Q101  -0.6060 
  7 C7      10.9350     7.0620    27.3720 C.3   1 Q101   0.0840 
  8 C8      12.8600     7.5960    25.8350 C.3   1 Q101   0.0840 
  9 C12      5.0210     7.9290    20.3210 C.3   1 Q101   0.1690 
 10 C13      5.5340     6.4860    20.3090 C.3   1 Q101  -0.1080 
 11 C14      6.2770     6.3240    21.6310 C.3   1 Q101   0.1020 
 12 C15      7.6140     7.9920    22.9840 C.ar  1 Q101   0.0330 
 13 C21      8.8540     8.4920    22.6110 C.ar  1 Q101  -0.1060 
 14 C22      7.3830     7.7660    24.3330 C.ar  1 Q101   0.1210 
 15 C24      9.8280     8.7690    23.5490 C.ar  1 Q101  -0.0920 
 16 C26      8.3370     8.0310    25.3030 C.ar  1 Q101  -0.1400 
 17 C27      9.5680     8.5440    24.8930 C.ar  1 Q101  -0.1150 
 18 C28     10.6840     8.8520    25.8350 C.2   1 Q101   0.6760 
 19 C50      5.9060     8.6360    21.3420 C.2   1 Q101   0.6950 
 20 F1       6.1890     7.2720    24.7000 F     1 Q101  -0.1400 
 21 O1       3.6950     6.8480    18.1760 O.2   1 Q101  -0.5930 
 22 CL1      4.8340    15.1980    19.9030 Cl    1 Q101  -0.0550 
 23 C1       4.4120    13.6420    19.2700 C.2   1 Q101   0.0330 
 24 C2       4.8840    13.0720    18.1350 C.2   1 Q101  -0.1460 
 25 S2       3.2840    12.6650    20.1230 S.3   1 Q101   0.0240 
 26 C3       4.3210    11.8090    17.9330 C.2   1 Q101  -0.1130 
 27 C4       3.4210    11.4270    18.9200 C.2   1 Q101  -0.0920 
 28 C5       2.7000    10.1490    18.9270 C.2   1 Q101   0.0810 
 29 C6       2.7070     9.2330    17.9590 C.2   1 Q101  -0.4200 
 30 O2       4.8470     8.4790    16.6730 O.2   1 Q101  -0.5930 
 31 H142     7.1810     5.7160    21.5280 H     1 Q101   0.0600 
 32 H141     5.6270     5.8960    22.4010 H     1 Q101   0.0600 
 33 H132     4.7270     5.7570    20.1910 H     1 Q101   0.0720 
 34 H131     6.2330     6.3400    19.4760 H     1 Q101   0.0720 
 35 H83     13.5720     8.0680    26.5090 H     1 Q101   0.0490 
 36 H82     13.0040     6.5120    25.8260 H     1 Q101   0.0490 
 37 H81     12.9810     7.9770    24.8240 H     1 Q101   0.0490 
 38 H73     10.0790     6.5100    26.9750 H     1 Q101   0.0490 
 39 H72     11.6880     6.3680    27.7530 H     1 Q101   0.0490 
 40 H71     10.5820     7.7030    28.1880 H     1 Q101   0.0490 
 41 H6       1.9100     9.0880    17.2450 H     1 Q101   0.1940 
 42 H5       2.1620     9.9570    19.8550 H     1 Q101   0.1560 
 43 H3       4.5740    11.1720    17.0910 H     1 Q101   0.1600 
 44 H26      8.1180     7.8490    26.3470 H     1 Q101   0.1600 
 45 H24     10.7970     9.1250    23.2250 H     1 Q101   0.1630 
 46 H21      9.0790     8.6610    21.5610 H     1 Q101   0.1530 
 47 H2       5.6080    13.5230    17.4710 H     1 Q101   0.1720 
 48 H12      4.0020     7.9380    20.7260 H     1 Q101   0.0910 
 49 H1       5.4550     9.5540    19.0410 H     1 Q101   0.4670 
@<TRIPOS>BOND
  1   1   2  am  
  2   1   9  1   
  3   1  49  1   
  4   2  21  2   
  5   2  29  1   
  6   2  30  2   
  7   3  11  1   
  8   3  12  1   
  9   3  19  am  
 10   4   7  1   
 11   4   8  1   
 12   4  18  am  
 13   5  19  2   
 14   6  18  2   
 15   7  38  1   
 16   7  39  1   
 17   7  40  1   
 18   8  35  1   
 19   8  36  1   
 20   8  37  1   
 21   9  10  1   
 22   9  19  1   
 23   9  48  1   
 24  10  11  1   
 25  10  33  1   
 26  10  34  1   
 27  11  31  1   
 28  11  32  1   
 29  12  13  ar  
 30  12  14  ar  
 31  13  15  ar  
 32  13  46  1   
 33  14  16  ar  
 34  14  20  1   
 35  15  17  ar  
 36  15  45  1   
 37  16  17  ar  
 38  16  44  1   
 39  17  18  1   
 40  22  23  1   
 41  23  24  2   
 42  23  25  1   
 43  24  26  1   
 44  24  47  1   
 45  25  27  1   
 46  26  27  2   
 47  26  43  1   
 48  27  28  1   
 49  28  29  2   
 50  28  42  1   
 51  29  41  1   
@<TRIPOS>SUBSTRUCTURE
  1 Q101  19 GROUP 4 **** **** 0

# MOE 2011.10 (io_trps.svl 2011.10)

@<TRIPOS>MOLECULE
FXA101_87
49 51 1 0 0 
SMALL
USER_CHARGES


@<TRIPOS>ATOM
  1 N1       6.9540     8.1600    21.4470 N.am  1 Q101  -0.8960 
  2 S1       8.1860     8.5070    22.4320 S.o2  1 Q101   1.3220 
  3 N2       4.0550     6.3520    21.0140 N.am  1 Q101  -0.3970 
  4 N3       0.2350     1.7020    18.6170 N.am  1 Q101  -0.4840 
  5 O3       6.1400     5.3860    21.1840 O.2   1 Q101  -0.6040 
  6 O4       2.0510     1.5100    17.3500 O.2   1 Q101  -0.6060 
  7 C7      -0.8760     2.4210    17.9740 C.3   1 Q101   0.0840 
  8 C8      -0.0990     0.6400    19.5810 C.3   1 Q101   0.0840 
  9 C12      5.7210     7.6520    22.0010 C.3   1 Q101   0.1690 
 10 C13      4.5080     8.5430    21.7160 C.3   1 Q101  -0.1080 
 11 C14      3.3710     7.5730    21.4160 C.3   1 Q101   0.1020 
 12 C15      3.3950     5.3010    20.3020 C.ar  1 Q101   0.0330 
 13 C21      2.6720     4.3220    20.9680 C.ar  1 Q101  -0.1060 
 14 C22      3.4840     5.2160    18.9200 C.ar  1 Q101   0.1210 
 15 C24      2.0490     3.2990    20.2840 C.ar  1 Q101  -0.0920 
 16 C26      2.8730     4.2030    18.1990 C.ar  1 Q101  -0.1400 
 17 C27      2.1450     3.2420    18.9010 C.ar  1 Q101  -0.1150 
 18 C28      1.4580     2.0910    18.2450 C.2   1 Q101   0.6760 
 19 C50      5.3670     6.3170    21.3560 C.2   1 Q101   0.6950 
 20 F1       4.1910     6.1550    18.2690 F     1 Q101  -0.1400 
 21 O1       9.1360     9.1670    21.5910 O.2   1 Q101  -0.5930 
 22 CL1     13.0720     7.5550    25.8760 Cl    1 Q101  -0.0550 
 23 C1      11.3860     7.9440    25.9460 C.2   1 Q101   0.0330 
 24 C2      10.5260     7.6540    26.9520 C.2   1 Q101  -0.1460 
 25 S2      10.6630     8.7900    24.6350 S.3   1 Q101   0.0240 
 26 C3       9.2390     8.1180    26.6660 C.2   1 Q101  -0.1130 
 27 C4       9.1300     8.7600    25.4390 C.2   1 Q101  -0.0920 
 28 C5       7.8820     9.3290    24.9150 C.2   1 Q101   0.0810 
 29 C6       7.6200     9.6200    23.6420 C.2   1 Q101  -0.4200 
 30 O2       8.4770     7.2340    23.0300 O.2   1 Q101  -0.5930 
 31 H142     2.7160     7.9340    20.6160 H     1 Q101   0.0600 
 32 H141     2.7800     7.3640    22.3140 H     1 Q101   0.0600 
 33 H132     4.2770     9.2120    22.5500 H     1 Q101   0.0720 
 34 H131     4.6970     9.1690    20.8350 H     1 Q101   0.0720 
 35 H83     -0.3060     1.0930    20.5480 H     1 Q101   0.0490 
 36 H82     -0.9760     0.0940    19.2210 H     1 Q101   0.0490 
 37 H81      0.7400    -0.0460    19.6520 H     1 Q101   0.0490 
 38 H73     -0.8510     2.2120    16.9020 H     1 Q101   0.0490 
 39 H72     -1.8340     2.1080    18.3980 H     1 Q101   0.0490 
 40 H71     -0.7480     3.5000    18.1180 H     1 Q101   0.0490 
 41 H6       7.0720    10.4900    23.3120 H     1 Q101   0.1940 
 42 H5       7.1110     9.4600    25.6740 H     1 Q101   0.1560 
 43 H3       8.4000     8.0040    27.3460 H     1 Q101   0.1600 
 44 H26      2.9580     4.1740    17.1200 H     1 Q101   0.1600 
 45 H24      1.5220     2.5300    20.8340 H     1 Q101   0.1630 
 46 H21      2.5980     4.3430    22.0530 H     1 Q101   0.1530 
 47 H2      10.7930     7.1390    27.8650 H     1 Q101   0.1720 
 48 H12      5.7830     7.4750    23.0810 H     1 Q101   0.0910 
 49 H1       7.1980     7.8510    20.5030 H     1 Q101   0.4670 
@<TRIPOS>BOND
  1   1   2  am  
  2   1   9  1   
  3   1  49  1   
  4   2  21  2   
  5   2  29  1   
  6   2  30  2   
  7   3  11  1   
  8   3  12  1   
  9   3  19  am  
 10   4   7  1   
 11   4   8  1   
 12   4  18  am  
 13   5  19  2   
 14   6  18  2   
 15   7  38  1   
 16   7  39  1   
 17   7  40  1   
 18   8  35  1   
 19   8  36  1   
 20   8  37  1   
 21   9  10  1   
 22   9  19  1   
 23   9  48  1   
 24  10  11  1   
 25  10  33  1   
 26  10  34  1   
 27  11  31  1   
 28  11  32  1   
 29  12  13  ar  
 30  12  14  ar  
 31  13  15  ar  
 32  13  46  1   
 33  14  16  ar  
 34  14  20  1   
 35  15  17  ar  
 36  15  45  1   
 37  16  17  ar  
 38  16  44  1   
 39  17  18  1   
 40  22  23  1   
 41  23  24  2   
 42  23  25  1   
 43  24  26  1   
 44  24  47  1   
 45  25  27  1   
 46  26  27  2   
 47  26  43  1   
 48  27  28  1   
 49  28  29  2   
 50  28  42  1   
 51  29  41  1   
@<TRIPOS>SUBSTRUCTURE
  1 Q101  19 GROUP 4 **** **** 0

# MOE 2011.10 (io_trps.svl 2011.10)

@<TRIPOS>MOLECULE
FXA101_88
49 51 1 0 0 
SMALL
USER_CHARGES


@<TRIPOS>ATOM
  1 N1       4.9600     4.3590    18.2110 N.am  1 Q101  -0.8960 
  2 S1       4.8330     3.2370    17.0560 S.o2  1 Q101   1.3220 
  3 N2       6.5990     7.1000    19.5030 N.am  1 Q101  -0.3970 
  4 N3       9.5070     8.7800    25.0790 N.am  1 Q101  -0.4840 
  5 O3       7.3100     4.9310    19.8180 O.2   1 Q101  -0.6040 
  6 O4       8.9650    10.7310    24.1620 O.2   1 Q101  -0.6060 
  7 C7      10.9720     8.8380    25.2100 C.3   1 Q101   0.0840 
  8 C8       8.7640     7.9460    26.0370 C.3   1 Q101   0.0840 
  9 C12      5.7960     5.5170    17.9900 C.3   1 Q101   0.1690 
 10 C13      5.0060     6.8170    17.8060 C.3   1 Q101  -0.1080 
 11 C14      5.8100     7.8730    18.5550 C.3   1 Q101   0.1020 
 12 C15      7.2220     7.6920    20.6470 C.ar  1 Q101   0.0330 
 13 C21      6.5590     7.7830    21.8620 C.ar  1 Q101  -0.1060 
 14 C22      8.5020     8.2200    20.5630 C.ar  1 Q101   0.1210 
 15 C24      7.1520     8.3680    22.9620 C.ar  1 Q101  -0.0920 
 16 C26      9.1300     8.8160    21.6450 C.ar  1 Q101  -0.1400 
 17 C27      8.4370     8.8800    22.8550 C.ar  1 Q101  -0.1150 
 18 C28      8.9940     9.5130    24.0870 C.2   1 Q101   0.6760 
 19 C50      6.6670     5.7760    19.2140 C.2   1 Q101   0.6950 
 20 F1       9.1450     8.1440    19.3870 F     1 Q101  -0.1400 
 21 O1       6.0700     2.5220    17.1210 O.2   1 Q101  -0.5930 
 22 CL1      0.7220    -3.8330    17.5180 Cl    1 Q101  -0.0550 
 23 C1       1.3270    -2.2140    17.6240 C.2   1 Q101   0.0330 
 24 C2       0.7390    -1.1670    18.2510 C.2   1 Q101  -0.1460 
 25 S2       2.8280    -1.8270    16.8810 S.3   1 Q101   0.0240 
 26 C3       1.5100    -0.0080    18.1300 C.2   1 Q101  -0.1130 
 27 C4       2.6850    -0.1840    17.4080 C.2   1 Q101  -0.0920 
 28 C5       3.6560     0.8840    17.1430 C.2   1 Q101   0.0810 
 29 C6       3.5290     2.1680    17.4770 C.2   1 Q101  -0.4200 
 30 O2       4.4800     4.0150    15.9010 O.2   1 Q101  -0.5930 
 31 H142     5.1690     8.5910    19.0760 H     1 Q101   0.0600 
 32 H141     6.4910     8.4040    17.8820 H     1 Q101   0.0600 
 33 H132     4.8610     7.0710    16.7520 H     1 Q101   0.0720 
 34 H131     4.0120     6.7230    18.2600 H     1 Q101   0.0720 
 35 H83      8.7900     6.9120    25.7000 H     1 Q101   0.0490 
 36 H82      9.2260     8.0360    27.0240 H     1 Q101   0.0490 
 37 H81      7.7390     8.3040    26.0940 H     1 Q101   0.0490 
 38 H73     11.2570     9.8620    25.4670 H     1 Q101   0.0490 
 39 H72     11.3170     8.1450    25.9810 H     1 Q101   0.0490 
 40 H71     11.4370     8.5810    24.2520 H     1 Q101   0.0490 
 41 H6       2.6700     2.5890    17.9780 H     1 Q101   0.1940 
 42 H5       4.5730     0.5320    16.6710 H     1 Q101   0.1560 
 43 H3       1.2300     0.9440    18.5720 H     1 Q101   0.1600 
 44 H26     10.1320     9.2100    21.5440 H     1 Q101   0.1600 
 45 H24      6.5970     8.4560    23.8860 H     1 Q101   0.1630 
 46 H21      5.5460     7.4000    21.9600 H     1 Q101   0.1530 
 47 H2      -0.2000    -1.2130    18.7850 H     1 Q101   0.1720 
 48 H12      6.4750     5.3920    17.1390 H     1 Q101   0.0910 
 49 H1       4.8710     4.0330    19.1770 H     1 Q101   0.4670 
@<TRIPOS>BOND
  1   1   2  am  
  2   1   9  1   
  3   1  49  1   
  4   2  21  2   
  5   2  29  1   
  6   2  30  2   
  7   3  11  1   
  8   3  12  1   
  9   3  19  am  
 10   4   7  1   
 11   4   8  1   
 12   4  18  am  
 13   5  19  2   
 14   6  18  2   
 15   7  38  1   
 16   7  39  1   
 17   7  40  1   
 18   8  35  1   
 19   8  36  1   
 20   8  37  1   
 21   9  10  1   
 22   9  19  1   
 23   9  48  1   
 24  10  11  1   
 25  10  33  1   
 26  10  34  1   
 27  11  31  1   
 28  11  32  1   
 29  12  13  ar  
 30  12  14  ar  
 31  13  15  ar  
 32  13  46  1   
 33  14  16  ar  
 34  14  20  1   
 35  15  17  ar  
 36  15  45  1   
 37  16  17  ar  
 38  16  44  1   
 39  17  18  1   
 40  22  23  1   
 41  23  24  2   
 42  23  25  1   
 43  24  26  1   
 44  24  47  1   
 45  25  27  1   
 46  26  27  2   
 47  26  43  1   
 48  27  28  1   
 49  28  29  2   
 50  28  42  1   
 51  29  41  1   
@<TRIPOS>SUBSTRUCTURE
  1 Q101  19 GROUP 4 **** **** 0

# MOE 2011.10 (io_trps.svl 2011.10)

@<TRIPOS>MOLECULE
FXA101_89
49 51 1 0 0 
SMALL
USER_CHARGES


@<TRIPOS>ATOM
  1 N1       4.3250     8.8920    18.9150 N.am  1 Q101  -0.8960 
  2 S1       4.5400    10.2180    19.8120 S.o2  1 Q101   1.3220 
  3 N2       5.1620     5.5540    18.7620 N.am  1 Q101  -0.3970 
  4 N3       9.6600     1.1210    17.0260 N.am  1 Q101  -0.4840 
  5 O3       6.7100     7.2410    19.0290 O.2   1 Q101  -0.6040 
  6 O4       8.2320     1.2210    15.3270 O.2   1 Q101  -0.6060 
  7 C7      10.2040    -0.1100    16.4320 C.3   1 Q101   0.0840 
  8 C8      10.3700     1.7010    18.1780 C.3   1 Q101   0.0840 
  9 C12      4.3470     7.5930    19.5480 C.3   1 Q101   0.1690 
 10 C13      3.1590     6.7050    19.1650 C.3   1 Q101  -0.1080 
 11 C14      3.7490     5.3080    19.0100 C.3   1 Q101   0.1020 
 12 C15      6.0280     4.5620    18.2020 C.ar  1 Q101   0.0330 
 13 C21      6.4650     4.6460    16.8880 C.ar  1 Q101  -0.1060 
 14 C22      6.4340     3.4700    18.9540 C.ar  1 Q101   0.1210 
 15 C24      7.2870     3.6820    16.3410 C.ar  1 Q101  -0.0920 
 16 C26      7.2580     2.4810    18.4400 C.ar  1 Q101  -0.1400 
 17 C27      7.6870     2.6040    17.1180 C.ar  1 Q101  -0.1150 
 18 C28      8.5580     1.5980    16.4410 C.2   1 Q101   0.6760 
 19 C50      5.5690     6.8070    19.0880 C.2   1 Q101   0.6950 
 20 F1       6.0070     3.3770    20.2240 F     1 Q101  -0.1400 
 21 O1       4.0920    11.2870    18.9740 O.2   1 Q101  -0.5930 
 22 CL1     -1.0430    10.2230    16.8430 Cl    1 Q101  -0.0550 
 23 C1      -0.0580    10.8080    18.1420 C.2   1 Q101   0.0330 
 24 C2       0.1230    12.1000    18.5050 C.2   1 Q101  -0.1460 
 25 S2       0.8030     9.6830    19.1160 S.3   1 Q101   0.0240 
 26 C3       0.9890    12.2010    19.5980 C.2   1 Q101  -0.1130 
 27 C4       1.4600    10.9780    20.0600 C.2   1 Q101  -0.0920 
 28 C5       2.3810    10.8250    21.1920 C.2   1 Q101   0.0810 
 29 C6       3.5050    10.1080    21.2040 C.2   1 Q101  -0.4200 
 30 O2       5.9160    10.1080    20.2100 O.2   1 Q101  -0.5930 
 31 H142     3.2980     4.7560    18.1790 H     1 Q101   0.0600 
 32 H141     3.6510     4.7310    19.9350 H     1 Q101   0.0600 
 33 H132     2.3570     6.7390    19.9080 H     1 Q101   0.0720 
 34 H131     2.7350     7.0320    18.2080 H     1 Q101   0.0720 
 35 H83     10.0610     1.1810    19.0830 H     1 Q101   0.0490 
 36 H82     11.4480     1.5910    18.0260 H     1 Q101   0.0490 
 37 H81     10.1290     2.7580    18.2440 H     1 Q101   0.0490 
 38 H73     10.5260     0.1100    15.4110 H     1 Q101   0.0490 
 39 H72     11.0460    -0.4830    17.0220 H     1 Q101   0.0490 
 40 H71      9.4220    -0.8750    16.3890 H     1 Q101   0.0490 
 41 H6       3.8210     9.4770    22.0220 H     1 Q101   0.1940 
 42 H5       2.1010    11.4130    22.0640 H     1 Q101   0.1560 
 43 H3       1.2580    13.1460    20.0600 H     1 Q101   0.1600 
 44 H26      7.5600     1.6470    19.0590 H     1 Q101   0.1600 
 45 H24      7.5820     3.7550    15.3030 H     1 Q101   0.1630 
 46 H21      6.1500     5.4760    16.2610 H     1 Q101   0.1530 
 47 H2      -0.3420    12.9500    18.0240 H     1 Q101   0.1720 
 48 H12      4.4040     7.6560    20.6410 H     1 Q101   0.0910 
 49 H1       4.6490     8.9380    17.9460 H     1 Q101   0.4670 
@<TRIPOS>BOND
  1   1   2  am  
  2   1   9  1   
  3   1  49  1   
  4   2  21  2   
  5   2  29  1   
  6   2  30  2   
  7   3  11  1   
  8   3  12  1   
  9   3  19  am  
 10   4   7  1   
 11   4   8  1   
 12   4  18  am  
 13   5  19  2   
 14   6  18  2   
 15   7  38  1   
 16   7  39  1   
 17   7  40  1   
 18   8  35  1   
 19   8  36  1   
 20   8  37  1   
 21   9  10  1   
 22   9  19  1   
 23   9  48  1   
 24  10  11  1   
 25  10  33  1   
 26  10  34  1   
 27  11  31  1   
 28  11  32  1   
 29  12  13  ar  
 30  12  14  ar  
 31  13  15  ar  
 32  13  46  1   
 33  14  16  ar  
 34  14  20  1   
 35  15  17  ar  
 36  15  45  1   
 37  16  17  ar  
 38  16  44  1   
 39  17  18  1   
 40  22  23  1   
 41  23  24  2   
 42  23  25  1   
 43  24  26  1   
 44  24  47  1   
 45  25  27  1   
 46  26  27  2   
 47  26  43  1   
 48  27  28  1   
 49  28  29  2   
 50  28  42  1   
 51  29  41  1   
@<TRIPOS>SUBSTRUCTURE
  1 Q101  19 GROUP 4 **** **** 0

# MOE 2011.10 (io_trps.svl 2011.10)

@<TRIPOS>MOLECULE
FXA101_90
49 51 1 0 0 
SMALL
USER_CHARGES


@<TRIPOS>ATOM
  1 N1       7.7760     9.9700    21.2270 N.am  1 Q101  -0.8960 
  2 S1       7.5570    10.7230    22.6400 S.o2  1 Q101   1.3220 
  3 N2       6.4990     7.4580    19.2480 N.am  1 Q101  -0.3970 
  4 N3       6.7650     1.7130    16.2030 N.am  1 Q101  -0.4840 
  5 O3       7.0750     7.1630    21.4590 O.2   1 Q101  -0.6040 
  6 O4       7.4460     1.2400    18.2640 O.2   1 Q101  -0.6060 
  7 C7       7.9180     1.7530    15.2900 C.3   1 Q101   0.0840 
  8 C8       5.4650     1.2960    15.6510 C.3   1 Q101   0.0840 
  9 C12      6.6430     9.3890    20.5470 C.3   1 Q101   0.1690 
 10 C13      6.5370     9.7960    19.0740 C.3   1 Q101  -0.1080 
 11 C14      6.0960     8.5290    18.3480 C.3   1 Q101   0.1020 
 12 C15      6.6130     6.0970    18.8190 C.ar  1 Q101   0.0330 
 13 C21      7.8500     5.5240    18.5630 C.ar  1 Q101  -0.1060 
 14 C22      5.4820     5.3200    18.6200 C.ar  1 Q101   0.1210 
 15 C24      7.9600     4.2170    18.1340 C.ar  1 Q101  -0.0920 
 16 C26      5.5530     4.0050    18.1880 C.ar  1 Q101  -0.1400 
 17 C27      6.8140     3.4570    17.9520 C.ar  1 Q101  -0.1150 
 18 C28      7.0250     2.0610    17.4660 C.2   1 Q101   0.6760 
 19 C50      6.7740     7.8710    20.5100 C.2   1 Q101   0.6950 
 20 F1       4.2800     5.8720    18.8560 F     1 Q101  -0.1400 
 21 O1       6.3390    10.1720    23.1470 O.2   1 Q101  -0.5930 
 22 CL1     13.3970     7.2390    26.7030 Cl    1 Q101  -0.0550 
 23 C1      11.7580     7.5820    26.2600 C.2   1 Q101   0.0330 
 24 C2      10.6440     6.9750    26.7350 C.2   1 Q101  -0.1460 
 25 S2      11.4410     8.8150    25.1040 S.3   1 Q101   0.0240 
 26 C3       9.4920     7.5070    26.1510 C.2   1 Q101  -0.1130 
 27 C4       9.7400     8.5200    25.2320 C.2   1 Q101  -0.0920 
 28 C5       8.6940     9.2300    24.4870 C.2   1 Q101   0.0810 
 29 C6       8.8670    10.2890    23.6970 C.2   1 Q101  -0.4200 
 30 O2       7.6550    12.1090    22.2750 O.2   1 Q101  -0.5930 
 31 H142     6.5790     8.4200    17.3720 H     1 Q101   0.0600 
 32 H141     5.0080     8.4980    18.2310 H     1 Q101   0.0600 
 33 H132     5.8440    10.6280    18.9190 H     1 Q101   0.0720 
 34 H131     7.5180    10.1110    18.6970 H     1 Q101   0.0720 
 35 H83      4.9950     2.1500    15.1680 H     1 Q101   0.0490 
 36 H82      5.6260     0.4900    14.9300 H     1 Q101   0.0490 
 37 H81      4.8420     0.9250    16.4620 H     1 Q101   0.0490 
 38 H73      8.6480     1.0090    15.6200 H     1 Q101   0.0490 
 39 H72      7.6040     1.5450    14.2640 H     1 Q101   0.0490 
 40 H71      8.3880     2.7410    15.3340 H     1 Q101   0.0490 
 41 H6       9.7570    10.9020    23.6780 H     1 Q101   0.1940 
 42 H5       7.7070     8.7780    24.5830 H     1 Q101   0.1560 
 43 H3       8.4890     7.1750    26.4010 H     1 Q101   0.1600 
 44 H26      4.6490     3.4260    18.0510 H     1 Q101   0.1600 
 45 H24      8.9360     3.8080    17.9080 H     1 Q101   0.1630 
 46 H21      8.7580     6.1090    18.6870 H     1 Q101   0.1530 
 47 H2      10.6370     6.1870    27.4750 H     1 Q101   0.1720 
 48 H12      5.6910     9.6120    21.0440 H     1 Q101   0.0910 
 49 H1       8.6810     9.5130    21.0890 H     1 Q101   0.4670 
@<TRIPOS>BOND
  1   1   2  am  
  2   1   9  1   
  3   1  49  1   
  4   2  21  2   
  5   2  29  1   
  6   2  30  2   
  7   3  11  1   
  8   3  12  1   
  9   3  19  am  
 10   4   7  1   
 11   4   8  1   
 12   4  18  am  
 13   5  19  2   
 14   6  18  2   
 15   7  38  1   
 16   7  39  1   
 17   7  40  1   
 18   8  35  1   
 19   8  36  1   
 20   8  37  1   
 21   9  10  1   
 22   9  19  1   
 23   9  48  1   
 24  10  11  1   
 25  10  33  1   
 26  10  34  1   
 27  11  31  1   
 28  11  32  1   
 29  12  13  ar  
 30  12  14  ar  
 31  13  15  ar  
 32  13  46  1   
 33  14  16  ar  
 34  14  20  1   
 35  15  17  ar  
 36  15  45  1   
 37  16  17  ar  
 38  16  44  1   
 39  17  18  1   
 40  22  23  1   
 41  23  24  2   
 42  23  25  1   
 43  24  26  1   
 44  24  47  1   
 45  25  27  1   
 46  26  27  2   
 47  26  43  1   
 48  27  28  1   
 49  28  29  2   
 50  28  42  1   
 51  29  41  1   
@<TRIPOS>SUBSTRUCTURE
  1 Q101   5 GROUP 4 **** **** 0

# MOE 2011.10 (io_trps.svl 2011.10)

@<TRIPOS>MOLECULE
FXA101_91
49 51 1 0 0 
SMALL
USER_CHARGES


@<TRIPOS>ATOM
  1 N1       6.3810     3.6830    17.6700 N.am  1 Q101  -0.8960 
  2 S1       6.5800     5.1230    18.3730 S.o2  1 Q101   1.3220 
  3 N2       4.8430     1.6670    15.3380 N.am  1 Q101  -0.3970 
  4 N3       3.6450    -4.6890    14.6740 N.am  1 Q101  -0.4840 
  5 O3       4.5680     1.4160    17.6120 O.2   1 Q101  -0.6040 
  6 O4       2.9710    -3.8370    12.7340 O.2   1 Q101  -0.6060 
  7 C7       3.7110    -4.3260    16.0980 C.3   1 Q101   0.0840 
  8 C8       3.7580    -6.1140    14.3210 C.3   1 Q101   0.0840 
  9 C12      5.3660     3.5190    16.6560 C.3   1 Q101   0.1690 
 10 C13      5.8750     3.7710    15.2330 C.3   1 Q101  -0.1080 
 11 C14      5.1950     2.7050    14.3800 C.3   1 Q101   0.1020 
 12 C15      4.5170     0.3330    14.9390 C.ar  1 Q101   0.0330 
 13 C21      3.2120    -0.1370    14.9930 C.ar  1 Q101  -0.1060 
 14 C22      5.5060    -0.5410    14.5120 C.ar  1 Q101   0.1210 
 15 C24      2.8990    -1.4290    14.6240 C.ar  1 Q101  -0.0920 
 16 C26      5.2300    -1.8460    14.1350 C.ar  1 Q101  -0.1400 
 17 C27      3.9050    -2.2800    14.1910 C.ar  1 Q101  -0.1150 
 18 C28      3.4800    -3.6650    13.8310 C.2   1 Q101   0.6760 
 19 C50      4.8760     2.0760    16.6310 C.2   1 Q101   0.6950 
 20 F1       6.7720    -0.0960    14.4680 F     1 Q101  -0.1400 
 21 O1       5.9940     6.0480    17.4530 O.2   1 Q101  -0.5930 
 22 CL1      7.2620    11.2690    19.7590 Cl    1 Q101  -0.0550 
 23 C1       7.2850     9.6050    20.2380 C.2   1 Q101   0.0330 
 24 C2       8.3190     8.9370    20.8030 C.2   1 Q101  -0.1460 
 25 S2       5.8790     8.6430    20.0040 S.3   1 Q101   0.0240 
 26 C3       7.9830     7.6040    21.0530 C.2   1 Q101  -0.1130 
 27 C4       6.6880     7.2680    20.6750 C.2   1 Q101  -0.0920 
 28 C5       6.1060     5.9300    20.8340 C.2   1 Q101   0.0810 
 29 C6       5.6720     5.1360    19.8550 C.2   1 Q101  -0.4200 
 30 O2       7.9880     5.1420    18.6560 O.2   1 Q101  -0.5930 
 31 H142     5.8560     2.3100    13.6030 H     1 Q101   0.0600 
 32 H141     4.2760     3.0890    13.9250 H     1 Q101   0.0600 
 33 H132     5.6580     4.7850    14.8860 H     1 Q101   0.0720 
 34 H131     6.9620     3.6340    15.1910 H     1 Q101   0.0720 
 35 H83      4.8100    -6.3900    14.2960 H     1 Q101   0.0490 
 36 H82      3.2250    -6.7090    15.0670 H     1 Q101   0.0490 
 37 H81      3.2980    -6.2730    13.3490 H     1 Q101   0.0490 
 38 H73      2.7480    -3.8990    16.3920 H     1 Q101   0.0490 
 39 H72      3.9380    -5.2040    16.7090 H     1 Q101   0.0490 
 40 H71      4.4850    -3.5660    16.2480 H     1 Q101   0.0490 
 41 H6       4.8060     4.4940    19.9250 H     1 Q101   0.1940 
 42 H5       6.0950     5.5790    21.8650 H     1 Q101   0.1560 
 43 H3       8.6610     6.8950    21.5180 H     1 Q101   0.1600 
 44 H26      6.0260    -2.4960    13.8000 H     1 Q101   0.1600 
 45 H24      1.8780    -1.7780    14.7100 H     1 Q101   0.1630 
 46 H21      2.4140     0.5120    15.3430 H     1 Q101   0.1530 
 47 H2       9.2810     9.3720    21.0400 H     1 Q101   0.1720 
 48 H12      4.4860     4.1490    16.8330 H     1 Q101   0.0910 
 49 H1       6.5980     2.8620    18.2420 H     1 Q101   0.4670 
@<TRIPOS>BOND
  1   1   2  am  
  2   1   9  1   
  3   1  49  1   
  4   2  21  2   
  5   2  29  1   
  6   2  30  2   
  7   3  11  1   
  8   3  12  1   
  9   3  19  am  
 10   4   7  1   
 11   4   8  1   
 12   4  18  am  
 13   5  19  2   
 14   6  18  2   
 15   7  38  1   
 16   7  39  1   
 17   7  40  1   
 18   8  35  1   
 19   8  36  1   
 20   8  37  1   
 21   9  10  1   
 22   9  19  1   
 23   9  48  1   
 24  10  11  1   
 25  10  33  1   
 26  10  34  1   
 27  11  31  1   
 28  11  32  1   
 29  12  13  ar  
 30  12  14  ar  
 31  13  15  ar  
 32  13  46  1   
 33  14  16  ar  
 34  14  20  1   
 35  15  17  ar  
 36  15  45  1   
 37  16  17  ar  
 38  16  44  1   
 39  17  18  1   
 40  22  23  1   
 41  23  24  2   
 42  23  25  1   
 43  24  26  1   
 44  24  47  1   
 45  25  27  1   
 46  26  27  2   
 47  26  43  1   
 48  27  28  1   
 49  28  29  2   
 50  28  42  1   
 51  29  41  1   
@<TRIPOS>SUBSTRUCTURE
  1 Q101  19 GROUP 4 **** **** 0

# MOE 2011.10 (io_trps.svl 2011.10)

@<TRIPOS>MOLECULE
FXA101_92
49 51 1 0 0 
SMALL
USER_CHARGES


@<TRIPOS>ATOM
  1 N1       7.2800     1.0150    14.5180 N.am  1 Q101  -0.8960 
  2 S1       6.2500    -0.0400    13.8590 S.o2  1 Q101   1.3220 
  3 N2       8.0370     2.2670    17.6370 N.am  1 Q101  -0.3970 
  4 N3       5.7990     6.7810    21.7740 N.am  1 Q101  -0.4840 
  5 O3       5.8820     1.9270    16.8940 O.2   1 Q101  -0.6040 
  6 O4       7.9940     6.7670    22.1210 O.2   1 Q101  -0.6060 
  7 C7       5.5510     7.2290    23.1540 C.3   1 Q101   0.0840 
  8 C8       4.6990     6.9050    20.8030 C.3   1 Q101   0.0840 
  9 C12      7.7770     0.7850    15.8550 C.3   1 Q101   0.1690 
 10 C13      9.2680     1.1000    16.0170 C.3   1 Q101  -0.1080 
 11 C14      9.3810     1.7660    17.3840 C.3   1 Q101   0.1020 
 12 C15      7.7630     3.2650    18.6250 C.ar  1 Q101   0.0330 
 13 C21      7.7940     4.6160    18.3110 C.ar  1 Q101  -0.1060 
 14 C22      7.4850     2.9070    19.9360 C.ar  1 Q101   0.1210 
 15 C24      7.5460     5.5800    19.2670 C.ar  1 Q101  -0.0920 
 16 C26      7.2320     3.8470    20.9220 C.ar  1 Q101  -0.1400 
 17 C27      7.2600     5.1960    20.5690 C.ar  1 Q101  -0.1150 
 18 C28      7.0250     6.3050    21.5410 C.2   1 Q101   0.6760 
 19 C50      7.0860     1.7190    16.8410 C.2   1 Q101   0.6950 
 20 F1       7.4640     1.6010    20.2480 F     1 Q101  -0.1400 
 21 O1       5.0320     0.1560    14.5830 O.2   1 Q101  -0.5930 
 22 CL1      5.0610     1.1440     6.0810 Cl    1 Q101  -0.0550 
 23 C1       5.2120     0.2390     7.5490 C.2   1 Q101   0.0330 
 24 C2       5.0900    -1.1030     7.6930 C.2   1 Q101  -0.1460 
 25 S2       5.5570     1.0680     9.0160 S.3   1 Q101   0.0240 
 26 C3       5.2710    -1.4860     9.0240 C.2   1 Q101  -0.1130 
 27 C4       5.5310    -0.4280     9.8870 C.2   1 Q101  -0.0920 
 28 C5       5.7530    -0.5780    11.3300 C.2   1 Q101   0.0810 
 29 C6       6.0070     0.4030    12.1960 C.2   1 Q101  -0.4200 
 30 O2       6.9750    -1.2770    13.9400 O.2   1 Q101  -0.5930 
 31 H142    10.1080     2.5840    17.3900 H     1 Q101   0.0600 
 32 H141     9.6350     1.0370    18.1600 H     1 Q101   0.0600 
 33 H132     9.8950     0.2080    15.9340 H     1 Q101   0.0720 
 34 H131     9.5920     1.8030    15.2390 H     1 Q101   0.0720 
 35 H83      4.0330     6.0530    20.9120 H     1 Q101   0.0490 
 36 H82      4.1600     7.8380    20.9920 H     1 Q101   0.0490 
 37 H81      5.1180     6.9370    19.8010 H     1 Q101   0.0490 
 38 H73      6.2060     8.0780    23.3660 H     1 Q101   0.0490 
 39 H72      4.5050     7.5170    23.2830 H     1 Q101   0.0490 
 40 H71      5.7970     6.4220    23.8520 H     1 Q101   0.0490 
 41 H6       6.0850     1.4480    11.9340 H     1 Q101   0.1940 
 42 H5       5.6380    -1.6020    11.6840 H     1 Q101   0.1560 
 43 H3       5.2300    -2.5190     9.3580 H     1 Q101   0.1600 
 44 H26      7.0120     3.5300    21.9330 H     1 Q101   0.1600 
 45 H24      7.6120     6.6270    19.0000 H     1 Q101   0.1630 
 46 H21      8.0300     4.9350    17.2990 H     1 Q101   0.1530 
 47 H2       4.8870    -1.7950     6.8880 H     1 Q101   0.1720 
 48 H12      7.5930    -0.2380    16.2040 H     1 Q101   0.0910 
 49 H1       7.1860     1.9910    14.2240 H     1 Q101   0.4670 
@<TRIPOS>BOND
  1   1   2  am  
  2   1   9  1   
  3   1  49  1   
  4   2  21  2   
  5   2  29  1   
  6   2  30  2   
  7   3  11  1   
  8   3  12  1   
  9   3  19  am  
 10   4   7  1   
 11   4   8  1   
 12   4  18  am  
 13   5  19  2   
 14   6  18  2   
 15   7  38  1   
 16   7  39  1   
 17   7  40  1   
 18   8  35  1   
 19   8  36  1   
 20   8  37  1   
 21   9  10  1   
 22   9  19  1   
 23   9  48  1   
 24  10  11  1   
 25  10  33  1   
 26  10  34  1   
 27  11  31  1   
 28  11  32  1   
 29  12  13  ar  
 30  12  14  ar  
 31  13  15  ar  
 32  13  46  1   
 33  14  16  ar  
 34  14  20  1   
 35  15  17  ar  
 36  15  45  1   
 37  16  17  ar  
 38  16  44  1   
 39  17  18  1   
 40  22  23  1   
 41  23  24  2   
 42  23  25  1   
 43  24  26  1   
 44  24  47  1   
 45  25  27  1   
 46  26  27  2   
 47  26  43  1   
 48  27  28  1   
 49  28  29  2   
 50  28  42  1   
 51  29  41  1   
@<TRIPOS>SUBSTRUCTURE
  1 Q101  19 GROUP 4 **** **** 0

# MOE 2011.10 (io_trps.svl 2011.10)

@<TRIPOS>MOLECULE
FXA101_93
49 51 1 0 0 
SMALL
USER_CHARGES


@<TRIPOS>ATOM
  1 N1       5.9920     7.2960    19.9400 N.am  1 Q101  -0.8960 
  2 S1       6.8200     7.7680    21.2450 S.o2  1 Q101   1.3220 
  3 N2       4.9940     4.4940    18.2030 N.am  1 Q101  -0.3970 
  4 N3       5.0860     0.2920    13.2110 N.am  1 Q101  -0.4840 
  5 O3       7.1840     4.9160    18.7810 O.2   1 Q101  -0.6040 
  6 O4       7.2120     0.8850    13.4750 O.2   1 Q101  -0.6060 
  7 C7       5.5530    -0.8880    12.4650 C.3   1 Q101   0.0840 
  8 C8       3.6400     0.5660    13.2290 C.3   1 Q101   0.0840 
  9 C12      5.3320     6.0110    19.9420 C.3   1 Q101   0.1690 
 10 C13      3.8630     6.0760    19.5130 C.3   1 Q101  -0.1080 
 11 C14      3.6520     4.8380    18.6500 C.3   1 Q101   0.1020 
 12 C15      5.2350     3.6270    17.0900 C.ar  1 Q101   0.0330 
 13 C21      5.6880     2.3290    17.2740 C.ar  1 Q101  -0.1060 
 14 C22      5.0480     4.0730    15.7900 C.ar  1 Q101   0.1210 
 15 C24      5.9360     1.4960    16.2020 C.ar  1 Q101  -0.0920 
 16 C26      5.2880     3.2670    14.6890 C.ar  1 Q101  -0.1400 
 17 C27      5.7320     1.9630    14.9120 C.ar  1 Q101  -0.1150 
 18 C28      6.0440     1.0030    13.8120 C.2   1 Q101   0.6760 
 19 C50      5.9820     5.0860    18.9190 C.2   1 Q101   0.6950 
 20 F1       4.6190     5.3320    15.6050 F     1 Q101  -0.1400 
 21 O1       7.0990     9.1500    21.0030 O.2   1 Q101  -0.5930 
 22 CL1     11.6510     8.7410    24.5210 Cl    1 Q101  -0.0550 
 23 C1       9.9360     8.5710    24.6900 C.2   1 Q101   0.0330 
 24 C2       9.2410     8.4530    25.8470 C.2   1 Q101  -0.1460 
 25 S2       8.9510     8.5460    23.2800 S.3   1 Q101   0.0240 
 26 C3       7.8710     8.3310    25.6030 C.2   1 Q101  -0.1130 
 27 C4       7.5320     8.3570    24.2550 C.2   1 Q101  -0.0920 
 28 C5       6.1600     8.2430    23.7490 C.2   1 Q101   0.0810 
 29 C6       5.7790     7.6270    22.6300 C.2   1 Q101  -0.4200 
 30 O2       7.8730     6.7950    21.3170 O.2   1 Q101  -0.5930 
 31 H142     2.9950     5.0330    17.7960 H     1 Q101   0.0600 
 32 H141     3.2560     4.0050    19.2400 H     1 Q101   0.0600 
 33 H132     3.1800     6.1110    20.3680 H     1 Q101   0.0720 
 34 H131     3.6840     6.9760    18.9120 H     1 Q101   0.0720 
 35 H83      3.3680     1.0920    12.3160 H     1 Q101   0.0490 
 36 H82      3.0980    -0.3810    13.2990 H     1 Q101   0.0490 
 37 H81      3.4080     1.1710    14.1010 H     1 Q101   0.0490 
 38 H73      5.9950    -1.5930    13.1740 H     1 Q101   0.0490 
 39 H72      4.7240    -1.3580    11.9310 H     1 Q101   0.0490 
 40 H71      6.3260    -0.5880    11.7490 H     1 Q101   0.0490 
 41 H6       4.8790     7.0380    22.5290 H     1 Q101   0.1940 
 42 H5       5.4120     8.6770    24.4130 H     1 Q101   0.1560 
 43 H3       7.1300     8.2400    26.3920 H     1 Q101   0.1600 
 44 H26      5.1230     3.6470    13.6890 H     1 Q101   0.1600 
 45 H24      6.3230     0.5010    16.3750 H     1 Q101   0.1630 
 46 H21      5.8670     1.9510    18.2780 H     1 Q101   0.1530 
 47 H2       9.6800     8.4590    26.8350 H     1 Q101   0.1720 
 48 H12      5.3960     5.5050    20.9120 H     1 Q101   0.0910 
 49 H1       6.3280     7.6410    19.0370 H     1 Q101   0.4670 
@<TRIPOS>BOND
  1   1   2  am  
  2   1   9  1   
  3   1  49  1   
  4   2  21  2   
  5   2  29  1   
  6   2  30  2   
  7   3  11  1   
  8   3  12  1   
  9   3  19  am  
 10   4   7  1   
 11   4   8  1   
 12   4  18  am  
 13   5  19  2   
 14   6  18  2   
 15   7  38  1   
 16   7  39  1   
 17   7  40  1   
 18   8  35  1   
 19   8  36  1   
 20   8  37  1   
 21   9  10  1   
 22   9  19  1   
 23   9  48  1   
 24  10  11  1   
 25  10  33  1   
 26  10  34  1   
 27  11  31  1   
 28  11  32  1   
 29  12  13  ar  
 30  12  14  ar  
 31  13  15  ar  
 32  13  46  1   
 33  14  16  ar  
 34  14  20  1   
 35  15  17  ar  
 36  15  45  1   
 37  16  17  ar  
 38  16  44  1   
 39  17  18  1   
 40  22  23  1   
 41  23  24  2   
 42  23  25  1   
 43  24  26  1   
 44  24  47  1   
 45  25  27  1   
 46  26  27  2   
 47  26  43  1   
 48  27  28  1   
 49  28  29  2   
 50  28  42  1   
 51  29  41  1   
@<TRIPOS>SUBSTRUCTURE
  1 Q101  19 GROUP 4 **** **** 0

# MOE 2011.10 (io_trps.svl 2011.10)

@<TRIPOS>MOLECULE
FXA101_94
49 51 1 0 0 
SMALL
USER_CHARGES


@<TRIPOS>ATOM
  1 N1       5.6310    -0.1100    12.5550 N.am  1 Q101  -0.8960 
  2 S1       5.3180     1.1690    11.6200 S.o2  1 Q101   1.3220 
  3 N2       4.4170    -2.8750    14.2120 N.am  1 Q101  -0.3970 
  4 N3       3.9110    -6.9370    19.2370 N.am  1 Q101  -0.4840 
  5 O3       4.0700    -0.7120    14.9280 O.2   1 Q101  -0.6040 
  6 O4       3.6640    -4.9530    20.2080 O.2   1 Q101  -0.6060 
  7 C7       2.8650    -7.6660    18.5020 C.3   1 Q101   0.0840 
  8 C8       4.9390    -7.7270    19.9350 C.3   1 Q101   0.0840 
  9 C12      4.6840    -1.1990    12.6120 C.3   1 Q101   0.1690 
 10 C13      5.2260    -2.5130    12.0410 C.3   1 Q101  -0.1080 
 11 C14      4.7000    -3.5940    12.9780 C.3   1 Q101   0.1020 
 12 C15      4.2510    -3.5400    15.4680 C.ar  1 Q101   0.0330 
 13 C21      5.3340    -4.0860    16.1430 C.ar  1 Q101  -0.1060 
 14 C22      2.9920    -3.6830    16.0340 C.ar  1 Q101   0.1210 
 15 C24      5.1720    -4.7430    17.3460 C.ar  1 Q101  -0.0920 
 16 C26      2.7920    -4.3360    17.2390 C.ar  1 Q101  -0.1400 
 17 C27      3.9040    -4.8620    17.8960 C.ar  1 Q101  -0.1150 
 18 C28      3.8200    -5.6040    19.1880 C.2   1 Q101   0.6760 
 19 C50      4.3500    -1.5290    14.0620 C.2   1 Q101   0.6950 
 20 F1       1.9390    -3.1650    15.3800 F     1 Q101  -0.1400 
 21 O1       5.6030     0.7140    10.2940 O.2   1 Q101  -0.5930 
 22 CL1     -2.2740     3.5400    11.5620 Cl    1 Q101  -0.0550 
 23 C1      -0.6850     3.2700    10.9290 C.2   1 Q101   0.0330 
 24 C2      -0.2360     3.6020     9.6940 C.2   1 Q101  -0.1460 
 25 S2       0.4970     2.5100    11.9190 S.3   1 Q101   0.0240 
 26 C3       1.1010     3.2300     9.5270 C.2   1 Q101  -0.1130 
 27 C4       1.6600     2.6160    10.6410 C.2   1 Q101  -0.0920 
 28 C5       3.0450     2.1340    10.7080 C.2   1 Q101   0.0810 
 29 C6       3.6240     1.5370    11.7480 C.2   1 Q101  -0.4200 
 30 O2       6.0970     2.2060    12.2360 O.2   1 Q101  -0.5930 
 31 H142     5.4330    -4.3890    13.1500 H     1 Q101   0.0600 
 32 H141     3.7670    -4.0260    12.6020 H     1 Q101   0.0600 
 33 H132     4.9200    -2.6750    11.0030 H     1 Q101   0.0720 
 34 H131     6.3230    -2.5110    12.0640 H     1 Q101   0.0720 
 35 H83      4.5470    -8.0460    20.8980 H     1 Q101   0.0490 
 36 H82      5.1980    -8.5950    19.3220 H     1 Q101   0.0490 
 37 H81      5.8250    -7.1110    20.0670 H     1 Q101   0.0490 
 38 H73      2.9650    -7.4360    17.4380 H     1 Q101   0.0490 
 39 H72      2.9580    -8.7420    18.6670 H     1 Q101   0.0490 
 40 H71      1.8780    -7.3280    18.8360 H     1 Q101   0.0490 
 41 H6       3.1180     1.2780    12.6670 H     1 Q101   0.1940 
 42 H5       3.5940     2.2560     9.7740 H     1 Q101   0.1560 
 43 H3       1.6620     3.4170     8.6170 H     1 Q101   0.1600 
 44 H26      1.7960    -4.4200    17.6540 H     1 Q101   0.1600 
 45 H24      6.0300    -5.1890    17.8310 H     1 Q101   0.1630 
 46 H21      6.3320    -4.0140    15.7190 H     1 Q101   0.1530 
 47 H2      -0.8240     4.0970     8.9340 H     1 Q101   0.1720 
 48 H12      3.7360    -0.9620    12.1150 H     1 Q101   0.0910 
 49 H1       6.1830     0.0650    13.3990 H     1 Q101   0.4670 
@<TRIPOS>BOND
  1   1   2  am  
  2   1   9  1   
  3   1  49  1   
  4   2  21  2   
  5   2  29  1   
  6   2  30  2   
  7   3  11  1   
  8   3  12  1   
  9   3  19  am  
 10   4   7  1   
 11   4   8  1   
 12   4  18  am  
 13   5  19  2   
 14   6  18  2   
 15   7  38  1   
 16   7  39  1   
 17   7  40  1   
 18   8  35  1   
 19   8  36  1   
 20   8  37  1   
 21   9  10  1   
 22   9  19  1   
 23   9  48  1   
 24  10  11  1   
 25  10  33  1   
 26  10  34  1   
 27  11  31  1   
 28  11  32  1   
 29  12  13  ar  
 30  12  14  ar  
 31  13  15  ar  
 32  13  46  1   
 33  14  16  ar  
 34  14  20  1   
 35  15  17  ar  
 36  15  45  1   
 37  16  17  ar  
 38  16  44  1   
 39  17  18  1   
 40  22  23  1   
 41  23  24  2   
 42  23  25  1   
 43  24  26  1   
 44  24  47  1   
 45  25  27  1   
 46  26  27  2   
 47  26  43  1   
 48  27  28  1   
 49  28  29  2   
 50  28  42  1   
 51  29  41  1   
@<TRIPOS>SUBSTRUCTURE
  1 Q101  19 GROUP 4 **** **** 0

# MOE 2011.10 (io_trps.svl 2011.10)

@<TRIPOS>MOLECULE
FXA101_95
49 51 1 0 0 
SMALL
USER_CHARGES


@<TRIPOS>ATOM
  1 N1       6.5300     2.4250    16.5760 N.am  1 Q101  -0.8960 
  2 S1       5.7180     1.6400    15.4210 S.o2  1 Q101   1.3220 
  3 N2       6.3990     4.6950    19.1640 N.am  1 Q101  -0.3970 
  4 N3       7.8980    10.8830    20.5980 N.am  1 Q101  -0.4840 
  5 O3       6.1330     5.2770    16.9500 O.2   1 Q101  -0.6040 
  6 O4       8.9350     9.6840    22.1570 O.2   1 Q101  -0.6060 
  7 C7       7.5200    10.7930    19.1790 C.3   1 Q101   0.0840 
  8 C8       7.8990    12.2140    21.2270 C.3   1 Q101   0.0840 
  9 C12      5.8120     2.9740    17.7030 C.3   1 Q101   0.1690 
 10 C13      6.2200     2.3600    19.0470 C.3   1 Q101  -0.1080 
 11 C14      6.2380     3.5310    20.0230 C.3   1 Q101   0.1020 
 12 C15      6.8270     5.9650    19.6640 C.ar  1 Q101   0.0330 
 13 C21      8.0900     6.4640    19.3780 C.ar  1 Q101  -0.1060 
 14 C22      5.9960     6.7240    20.4760 C.ar  1 Q101   0.1210 
 15 C24      8.5100     7.6820    19.8730 C.ar  1 Q101  -0.0920 
 16 C26      6.3840     7.9500    20.9920 C.ar  1 Q101  -0.1400 
 17 C27      7.6560     8.4250    20.6740 C.ar  1 Q101  -0.1150 
 18 C28      8.2000     9.7200    21.1830 C.2   1 Q101   0.6760 
 19 C50      6.1290     4.4570    17.8560 C.2   1 Q101   0.6950 
 20 F1       4.7760     6.2420    20.7640 F     1 Q101  -0.1400 
 21 O1       5.1950     2.6800    14.5890 O.2   1 Q101  -0.5930 
 22 CL1     10.5040    -4.7830    14.1490 Cl    1 Q101  -0.0550 
 23 C1       9.3270    -3.5190    14.2700 C.2   1 Q101   0.0330 
 24 C2       8.0690    -3.5290    13.7680 C.2   1 Q101  -0.1460 
 25 S2       9.7310    -2.0710    15.1050 S.3   1 Q101   0.0240 
 26 C3       7.4010    -2.3350    14.0530 C.2   1 Q101  -0.1130 
 27 C4       8.1610    -1.4220    14.7740 C.2   1 Q101  -0.0920 
 28 C5       7.6810    -0.0980    15.1890 C.2   1 Q101   0.0810 
 29 C6       6.8520     0.6910    14.5080 C.2   1 Q101  -0.4200 
 30 O2       4.8500     0.7810    16.1760 O.2   1 Q101  -0.5930 
 31 H142     7.0610     3.4600    20.7410 H     1 Q101   0.0600 
 32 H141     5.2860     3.6170    20.5560 H     1 Q101   0.0600 
 33 H132     5.5410     1.5620    19.3640 H     1 Q101   0.0720 
 34 H131     7.2250     1.9270    18.9750 H     1 Q101   0.0720 
 35 H83      8.8360    12.7150    20.9930 H     1 Q101   0.0490 
 36 H82      7.0520    12.7900    20.8440 H     1 Q101   0.0490 
 37 H81      7.7880    12.0950    22.3020 H     1 Q101   0.0490 
 38 H73      6.5960    10.2150    19.1020 H     1 Q101   0.0490 
 39 H72      7.3780    11.7900    18.7550 H     1 Q101   0.0490 
 40 H71      8.3030    10.2680    18.6230 H     1 Q101   0.0490 
 41 H6       6.8450     0.7900    13.4320 H     1 Q101   0.1940 
 42 H5       8.0260     0.1990    16.1790 H     1 Q101   0.1560 
 43 H3       6.3750    -2.1400    13.7560 H     1 Q101   0.1600 
 44 H26      5.7060     8.5180    21.6160 H     1 Q101   0.1600 
 45 H24      9.5130     8.0270    19.6620 H     1 Q101   0.1630 
 46 H21      8.7760     5.8870    18.7630 H     1 Q101   0.1530 
 47 H2       7.6270    -4.3520    13.2230 H     1 Q101   0.1720 
 48 H12      4.7240     2.8920    17.5930 H     1 Q101   0.0910 
 49 H1       7.3760     2.9200    16.2840 H     1 Q101   0.4670 
@<TRIPOS>BOND
  1   1   2  am  
  2   1   9  1   
  3   1  49  1   
  4   2  21  2   
  5   2  29  1   
  6   2  30  2   
  7   3  11  1   
  8   3  12  1   
  9   3  19  am  
 10   4   7  1   
 11   4   8  1   
 12   4  18  am  
 13   5  19  2   
 14   6  18  2   
 15   7  38  1   
 16   7  39  1   
 17   7  40  1   
 18   8  35  1   
 19   8  36  1   
 20   8  37  1   
 21   9  10  1   
 22   9  19  1   
 23   9  48  1   
 24  10  11  1   
 25  10  33  1   
 26  10  34  1   
 27  11  31  1   
 28  11  32  1   
 29  12  13  ar  
 30  12  14  ar  
 31  13  15  ar  
 32  13  46  1   
 33  14  16  ar  
 34  14  20  1   
 35  15  17  ar  
 36  15  45  1   
 37  16  17  ar  
 38  16  44  1   
 39  17  18  1   
 40  22  23  1   
 41  23  24  2   
 42  23  25  1   
 43  24  26  1   
 44  24  47  1   
 45  25  27  1   
 46  26  27  2   
 47  26  43  1   
 48  27  28  1   
 49  28  29  2   
 50  28  42  1   
 51  29  41  1   
@<TRIPOS>SUBSTRUCTURE
  1 Q101  19 GROUP 4 **** **** 0

# MOE 2011.10 (io_trps.svl 2011.10)

@<TRIPOS>MOLECULE
FXA101_96
49 51 1 0 0 
SMALL
USER_CHARGES


@<TRIPOS>ATOM
  1 N1       6.0940     9.3070    21.2120 N.am  1 Q101  -0.8960 
  2 S1       6.6910    10.0120    22.5360 S.o2  1 Q101   1.3220 
  3 N2       4.5340     6.5610    19.8350 N.am  1 Q101  -0.3970 
  4 N3       6.1180     1.8170    15.6870 N.am  1 Q101  -0.4840 
  5 O3       6.7240     6.5510    20.5510 O.2   1 Q101  -0.6040 
  6 O4       3.9100     1.6240    15.8520 O.2   1 Q101  -0.6060 
  7 C7       7.1770     1.6770    16.6990 C.3   1 Q101   0.0840 
  8 C8       6.4550     1.5000    14.2900 C.3   1 Q101   0.0840 
  9 C12      5.1380     8.2320    21.3460 C.3   1 Q101   0.1690 
 10 C13      3.7560     8.5650    20.7730 C.3   1 Q101  -0.1080 
 11 C14      3.2950     7.2810    20.0930 C.3   1 Q101   0.1020 
 12 C15      4.6150     5.4840    18.8970 C.ar  1 Q101   0.0330 
 13 C21      4.6860     4.1640    19.3210 C.ar  1 Q101  -0.1060 
 14 C22      4.6540     5.7330    17.5330 C.ar  1 Q101   0.1210 
 15 C24      4.7800     3.1250    18.4180 C.ar  1 Q101  -0.0920 
 16 C26      4.7500     4.7160    16.5970 C.ar  1 Q101  -0.1400 
 17 C27      4.8070     3.4000    17.0580 C.ar  1 Q101  -0.1150 
 18 C28      4.9320     2.2180    16.1550 C.2   1 Q101   0.6760 
 19 C50      5.5950     7.0190    20.5450 C.2   1 Q101   0.6950 
 20 F1       4.5960     7.0080    17.1180 F     1 Q101  -0.1400 
 21 O1       5.5480    10.2180    23.3720 O.2   1 Q101  -0.5930 
 22 CL1     13.2920     7.2390    26.4900 Cl    1 Q101  -0.0550 
 23 C1      11.7170     7.6810    25.9250 C.2   1 Q101   0.0330 
 24 C2      10.5280     7.2540    26.4150 C.2   1 Q101  -0.1460 
 25 S2      11.5730     8.7780    24.6080 S.3   1 Q101   0.0240 
 26 C3       9.4600     7.8170    25.7110 C.2   1 Q101  -0.1130 
 27 C4       9.8470     8.6710    24.6850 C.2   1 Q101  -0.0920 
 28 C5       8.9100     9.3780    23.8040 C.2   1 Q101   0.0810 
 29 C6       7.7720     8.8910    23.3100 C.2   1 Q101  -0.4200 
 30 O2       7.4300    11.1180    21.9960 O.2   1 Q101  -0.5930 
 31 H142     2.7560     7.4750    19.1600 H     1 Q101   0.0600 
 32 H141     2.6720     6.6790    20.7630 H     1 Q101   0.0600 
 33 H132     3.0570     8.9060    21.5420 H     1 Q101   0.0720 
 34 H131     3.8400     9.3650    20.0270 H     1 Q101   0.0720 
 35 H83      6.9380     2.3640    13.8380 H     1 Q101   0.0490 
 36 H82      7.1250     0.6360    14.2720 H     1 Q101   0.0490 
 37 H81      5.5420     1.2500    13.7560 H     1 Q101   0.0490 
 38 H73      6.8890     0.8860    17.3960 H     1 Q101   0.0490 
 39 H72      8.1320     1.4360    16.2260 H     1 Q101   0.0490 
 40 H71      7.2740     2.6120    17.2610 H     1 Q101   0.0490 
 41 H6       7.4820     7.8510    23.3450 H     1 Q101   0.1940 
 42 H5       9.1920    10.4110    23.6070 H     1 Q101   0.1560 
 43 H3       8.4190     7.6210    25.9500 H     1 Q101   0.1600 
 44 H26      4.7700     4.9480    15.5400 H     1 Q101   0.1600 
 45 H24      4.8700     2.1090    18.7780 H     1 Q101   0.1630 
 46 H21      4.6800     3.9320    20.3830 H     1 Q101   0.1530 
 47 H2      10.4100     6.5740    27.2470 H     1 Q101   0.1720 
 48 H12      5.0190     7.8990    22.3840 H     1 Q101   0.0910 
 49 H1       6.7080     9.2780    20.3930 H     1 Q101   0.4670 
@<TRIPOS>BOND
  1   1   2  am  
  2   1   9  1   
  3   1  49  1   
  4   2  21  2   
  5   2  29  1   
  6   2  30  2   
  7   3  11  1   
  8   3  12  1   
  9   3  19  am  
 10   4   7  1   
 11   4   8  1   
 12   4  18  am  
 13   5  19  2   
 14   6  18  2   
 15   7  38  1   
 16   7  39  1   
 17   7  40  1   
 18   8  35  1   
 19   8  36  1   
 20   8  37  1   
 21   9  10  1   
 22   9  19  1   
 23   9  48  1   
 24  10  11  1   
 25  10  33  1   
 26  10  34  1   
 27  11  31  1   
 28  11  32  1   
 29  12  13  ar  
 30  12  14  ar  
 31  13  15  ar  
 32  13  46  1   
 33  14  16  ar  
 34  14  20  1   
 35  15  17  ar  
 36  15  45  1   
 37  16  17  ar  
 38  16  44  1   
 39  17  18  1   
 40  22  23  1   
 41  23  24  2   
 42  23  25  1   
 43  24  26  1   
 44  24  47  1   
 45  25  27  1   
 46  26  27  2   
 47  26  43  1   
 48  27  28  1   
 49  28  29  2   
 50  28  42  1   
 51  29  41  1   
@<TRIPOS>SUBSTRUCTURE
  1 Q101   5 GROUP 4 **** **** 0

# MOE 2011.10 (io_trps.svl 2011.10)

@<TRIPOS>MOLECULE
FXA101_97
49 51 1 0 0 
SMALL
USER_CHARGES


@<TRIPOS>ATOM
  1 N1       4.9640     7.9680    21.8360 N.am  1 Q101  -0.8960 
  2 S1       6.1080     8.2110    22.9500 S.o2  1 Q101   1.3220 
  3 N2       3.8430     5.4760    19.7380 N.am  1 Q101  -0.3970 
  4 N3       5.2500     2.8010    13.9380 N.am  1 Q101  -0.4840 
  5 O3       6.0720     5.9850    20.0270 O.2   1 Q101  -0.6040 
  6 O4       3.0300     2.8960    14.0100 O.2   1 Q101  -0.6060 
  7 C7       6.2960     2.2170    14.7920 C.3   1 Q101   0.0840 
  8 C8       5.5560     2.9990    12.5120 C.3   1 Q101   0.0840 
  9 C12      4.3940     6.6500    21.6760 C.3   1 Q101   0.1690 
 10 C13      2.8700     6.6560    21.5160 C.3   1 Q101  -0.1080 
 11 C14      2.5840     5.5950    20.4590 C.3   1 Q101   0.1020 
 12 C15      3.9320     4.8700    18.4450 C.ar  1 Q101   0.0330 
 13 C21      3.4690     5.5210    17.3100 C.ar  1 Q101  -0.1060 
 14 C22      4.4630     3.5970    18.2940 C.ar  1 Q101   0.1210 
 15 C24      3.5400     4.9310    16.0650 C.ar  1 Q101  -0.0920 
 16 C26      4.5500     2.9720    17.0600 C.ar  1 Q101  -0.1400 
 17 C27      4.0840     3.6610    15.9390 C.ar  1 Q101  -0.1150 
 18 C28      4.1030     3.0910    14.5600 C.2   1 Q101   0.6760 
 19 C50      4.9050     6.0090    20.3910 C.2   1 Q101   0.6950 
 20 F1       4.9040     2.9580    19.3900 F     1 Q101  -0.1400 
 21 O1       7.1290     7.2650    22.6200 O.2   1 Q101  -0.5930 
 22 CL1     11.2510     6.9980    26.5020 Cl    1 Q101  -0.0550 
 23 C1       9.9510     7.9430    25.8570 C.2   1 Q101   0.0330 
 24 C2       8.7780     8.2340    26.4680 C.2   1 Q101  -0.1460 
 25 S2      10.1020     8.6170    24.2820 S.3   1 Q101   0.0240 
 26 C3       7.9620     9.0190    25.6480 C.2   1 Q101  -0.1130 
 27 C4       8.5260     9.3200    24.4140 C.2   1 Q101  -0.0920 
 28 C5       7.8630    10.1260    23.3810 C.2   1 Q101   0.0810 
 29 C6       6.7310     9.8210    22.7480 C.2   1 Q101  -0.4200 
 30 O2       5.3720     8.1170    24.1800 O.2   1 Q101  -0.5930 
 31 H142     1.7740     5.8900    19.7840 H     1 Q101   0.0600 
 32 H141     2.3510     4.6300    20.9190 H     1 Q101   0.0600 
 33 H132     2.3510     6.4580    22.4580 H     1 Q101   0.0720 
 34 H131     2.5320     7.6350    21.1540 H     1 Q101   0.0720 
 35 H83      6.1080     3.9280    12.3940 H     1 Q101   0.0490 
 36 H82      6.1510     2.1540    12.1540 H     1 Q101   0.0490 
 37 H81      4.6240     3.0340    11.9540 H     1 Q101   0.0490 
 38 H73      5.9450     1.2480    15.1570 H     1 Q101   0.0490 
 39 H72      7.2260     2.0950    14.2310 H     1 Q101   0.0490 
 40 H71      6.4730     2.8680    15.6550 H     1 Q101   0.0490 
 41 H6       6.1690    10.5080    22.1310 H     1 Q101   0.1940 
 42 H5       8.3580    11.0770    23.1860 H     1 Q101   0.1560 
 43 H3       6.9830     9.3780    25.9490 H     1 Q101   0.1600 
 44 H26      4.9770     1.9820    16.9800 H     1 Q101   0.1600 
 45 H24      3.1380     5.4480    15.2040 H     1 Q101   0.1630 
 46 H21      3.0260     6.5100    17.3920 H     1 Q101   0.1530 
 47 H2       8.5010     7.9120    27.4630 H     1 Q101   0.1720 
 48 H12      4.6600     5.9720    22.4960 H     1 Q101   0.0910 
 49 H1       5.0090     8.5540    20.9990 H     1 Q101   0.4670 
@<TRIPOS>BOND
  1   1   2  am  
  2   1   9  1   
  3   1  49  1   
  4   2  21  2   
  5   2  29  1   
  6   2  30  2   
  7   3  11  1   
  8   3  12  1   
  9   3  19  am  
 10   4   7  1   
 11   4   8  1   
 12   4  18  am  
 13   5  19  2   
 14   6  18  2   
 15   7  38  1   
 16   7  39  1   
 17   7  40  1   
 18   8  35  1   
 19   8  36  1   
 20   8  37  1   
 21   9  10  1   
 22   9  19  1   
 23   9  48  1   
 24  10  11  1   
 25  10  33  1   
 26  10  34  1   
 27  11  31  1   
 28  11  32  1   
 29  12  13  ar  
 30  12  14  ar  
 31  13  15  ar  
 32  13  46  1   
 33  14  16  ar  
 34  14  20  1   
 35  15  17  ar  
 36  15  45  1   
 37  16  17  ar  
 38  16  44  1   
 39  17  18  1   
 40  22  23  1   
 41  23  24  2   
 42  23  25  1   
 43  24  26  1   
 44  24  47  1   
 45  25  27  1   
 46  26  27  2   
 47  26  43  1   
 48  27  28  1   
 49  28  29  2   
 50  28  42  1   
 51  29  41  1   
@<TRIPOS>SUBSTRUCTURE
  1 Q101   5 GROUP 4 **** **** 0

# MOE 2011.10 (io_trps.svl 2011.10)

@<TRIPOS>MOLECULE
FXA101_98
49 51 1 0 0 
SMALL
USER_CHARGES


@<TRIPOS>ATOM
  1 N1       5.9520    12.0730    20.6550 N.am  1 Q101  -0.8960 
  2 S1       7.1680    11.0880    21.0560 S.o2  1 Q101   1.3220 
  3 N2       3.2130    12.7680    18.6850 N.am  1 Q101  -0.3970 
  4 N3       1.0440    17.4900    14.7440 N.am  1 Q101  -0.4840 
  5 O3       5.3730    13.3120    18.0940 O.2   1 Q101  -0.6040 
  6 O4      -0.7820    16.7620    15.7830 O.2   1 Q101  -0.6060 
  7 C7       0.6890    18.9120    14.8740 C.3   1 Q101   0.0840 
  8 C8       2.0350    17.1190    13.7210 C.3   1 Q101   0.0840 
  9 C12      4.9110    11.5970    19.7740 C.3   1 Q101   0.1690 
 10 C13      3.5850    11.3140    20.4880 C.3   1 Q101  -0.1080 
 11 C14      2.5100    11.8100    19.5270 C.3   1 Q101   0.1020 
 12 C15      2.5270    13.7380    17.8890 C.ar  1 Q101   0.0330 
 13 C21      2.2680    15.0130    18.3720 C.ar  1 Q101  -0.1060 
 14 C22      2.0770    13.4200    16.6160 C.ar  1 Q101   0.1210 
 15 C24      1.5920    15.9450    17.6110 C.ar  1 Q101  -0.0920 
 16 C26      1.3940    14.3290    15.8230 C.ar  1 Q101  -0.1400 
 17 C27      1.1600    15.6050    16.3370 C.ar  1 Q101  -0.1150 
 18 C28      0.4200    16.6670    15.5920 C.2   1 Q101   0.6760 
 19 C50      4.5650    12.6670    18.7450 C.2   1 Q101   0.6950 
 20 F1       2.3160    12.1850    16.1470 F     1 Q101  -0.1400 
 21 O1       7.6300    11.5920    22.3130 O.2   1 Q101  -0.5930 
 22 CL1     10.9060     9.3910    26.1720 Cl    1 Q101  -0.0550 
 23 C1       9.9530     9.2020    24.7380 C.2   1 Q101   0.0330 
 24 C2      10.4100     9.0800    23.4690 C.2   1 Q101  -0.1460 
 25 S2       8.2390     9.1530    24.8690 S.3   1 Q101   0.0240 
 26 C3       9.3550     8.9480    22.5620 C.2   1 Q101  -0.1130 
 27 C4       8.0970     8.9720    23.1530 C.2   1 Q101  -0.0920 
 28 C5       6.8370     8.8540    22.4100 C.2   1 Q101   0.0810 
 29 C6       6.5230     9.4900    21.2810 C.2   1 Q101  -0.4200 
 30 O2       8.0000    11.1260    19.8860 O.2   1 Q101  -0.5930 
 31 H142     1.6760    12.2890    20.0480 H     1 Q101   0.0600 
 32 H141     2.1370    10.9970    18.8960 H     1 Q101   0.0600 
 33 H132     3.4650    10.2570    20.7400 H     1 Q101   0.0720 
 34 H131     3.5310    11.8840    21.4240 H     1 Q101   0.0720 
 35 H83      1.5350    17.0360    12.7580 H     1 Q101   0.0490 
 36 H82      2.8120    17.8870    13.6820 H     1 Q101   0.0490 
 37 H81      2.4890    16.1710    13.9990 H     1 Q101   0.0490 
 38 H73      1.0090    19.2610    15.8600 H     1 Q101   0.0490 
 39 H72      1.1700    19.5020    14.0900 H     1 Q101   0.0490 
 40 H71     -0.3980    19.0280    14.8050 H     1 Q101   0.0490 
 41 H6       5.9100     9.0760    20.4940 H     1 Q101   0.1940 
 42 H5       6.1450     8.1290    22.8360 H     1 Q101   0.1560 
 43 H3       9.4990     8.8220    21.4940 H     1 Q101   0.1600 
 44 H26      1.0640    14.0480    14.8320 H     1 Q101   0.1600 
 45 H24      1.3730    16.9180    18.0280 H     1 Q101   0.1630 
 46 H21      2.5860    15.2910    19.3730 H     1 Q101   0.1530 
 47 H2      11.4540     9.0750    23.1850 H     1 Q101   0.1720 
 48 H12      5.2080    10.7030    19.2130 H     1 Q101   0.0910 
 49 H1       6.1670    13.0720    20.6160 H     1 Q101   0.4670 
@<TRIPOS>BOND
  1   1   2  am  
  2   1   9  1   
  3   1  49  1   
  4   2  21  2   
  5   2  29  1   
  6   2  30  2   
  7   3  11  1   
  8   3  12  1   
  9   3  19  am  
 10   4   7  1   
 11   4   8  1   
 12   4  18  am  
 13   5  19  2   
 14   6  18  2   
 15   7  38  1   
 16   7  39  1   
 17   7  40  1   
 18   8  35  1   
 19   8  36  1   
 20   8  37  1   
 21   9  10  1   
 22   9  19  1   
 23   9  48  1   
 24  10  11  1   
 25  10  33  1   
 26  10  34  1   
 27  11  31  1   
 28  11  32  1   
 29  12  13  ar  
 30  12  14  ar  
 31  13  15  ar  
 32  13  46  1   
 33  14  16  ar  
 34  14  20  1   
 35  15  17  ar  
 36  15  45  1   
 37  16  17  ar  
 38  16  44  1   
 39  17  18  1   
 40  22  23  1   
 41  23  24  2   
 42  23  25  1   
 43  24  26  1   
 44  24  47  1   
 45  25  27  1   
 46  26  27  2   
 47  26  43  1   
 48  27  28  1   
 49  28  29  2   
 50  28  42  1   
 51  29  41  1   
@<TRIPOS>SUBSTRUCTURE
  1 Q101  19 GROUP 4 **** **** 0

# MOE 2011.10 (io_trps.svl 2011.10)

@<TRIPOS>MOLECULE
FXA101_99
49 51 1 0 0 
SMALL
USER_CHARGES


@<TRIPOS>ATOM
  1 N1      -0.2810     8.1320    20.3410 N.am  1 Q101  -0.8960 
  2 S1      -1.5200     9.1140    20.0130 S.o2  1 Q101   1.3220 
  3 N2       2.4430     6.4690    19.0430 N.am  1 Q101  -0.3970 
  4 N3       8.1170     3.2330    19.1760 N.am  1 Q101  -0.4840 
  5 O3       1.2400     5.7140    20.8580 O.2   1 Q101  -0.6040 
  6 O4       7.8480     3.9950    21.2470 O.2   1 Q101  -0.6060 
  7 C7       7.8370     1.7930    19.0680 C.3   1 Q101   0.0840 
  8 C8       9.1140     3.8110    18.2600 C.3   1 Q101   0.0840 
  9 C12      0.2870     7.3250    19.2860 C.3   1 Q101   0.1690 
 10 C13      1.0210     8.1410    18.2170 C.3   1 Q101  -0.1080 
 11 C14      2.2560     7.3150    17.8730 C.3   1 Q101   0.1020 
 12 C15      3.6760     5.7980    19.3160 C.ar  1 Q101   0.0330 
 13 C21      4.6760     6.4040    20.0640 C.ar  1 Q101  -0.1060 
 14 C22      3.9190     4.5280    18.8140 C.ar  1 Q101   0.1210 
 15 C24      5.8730     5.7640    20.3150 C.ar  1 Q101  -0.0920 
 16 C26      5.1090     3.8560    19.0430 C.ar  1 Q101  -0.1400 
 17 C27      6.0870     4.4900    19.8090 C.ar  1 Q101  -0.1150 
 18 C28      7.4160     3.8820    20.1110 C.2   1 Q101   0.6760 
 19 C50      1.3560     6.3980    19.8520 C.2   1 Q101   0.6950 
 20 F1       2.9600     3.9410    18.0800 F     1 Q101  -0.1400 
 21 O1      -2.3510     9.0330    21.1750 O.2   1 Q101  -0.5930 
 22 CL1      2.2440     9.0430    25.3620 Cl    1 Q101  -0.0550 
 23 C1       1.2410     9.6990    24.1130 C.2   1 Q101   0.0330 
 24 C2      -0.0740    10.0120    24.2070 C.2   1 Q101  -0.1460 
 25 S2       1.9220    10.0140    22.5660 S.3   1 Q101   0.0240 
 26 C3      -0.5610    10.5170    22.9990 C.2   1 Q101  -0.1130 
 27 C4       0.3930    10.5850    21.9900 C.2   1 Q101  -0.0920 
 28 C5       0.1230    11.0760    20.6340 C.2   1 Q101   0.0810 
 29 C6      -0.9070    10.7340    19.8600 C.2   1 Q101  -0.4200 
 30 O2      -1.9720     8.6340    18.7370 O.2   1 Q101  -0.5930 
 31 H142     3.1380     7.9390    17.6980 H     1 Q101   0.0600 
 32 H141     2.0750     6.6750    17.0030 H     1 Q101   0.0600 
 33 H132     0.3950     8.3410    17.3420 H     1 Q101   0.0720 
 34 H131     1.3310     9.1100    18.6270 H     1 Q101   0.0720 
 35 H83     10.1090     3.6340    18.6620 H     1 Q101   0.0490 
 36 H82      9.0100     3.3420    17.2780 H     1 Q101   0.0490 
 37 H81      8.9260     4.8770    18.1630 H     1 Q101   0.0490 
 38 H73      6.7990     1.6640    18.7520 H     1 Q101   0.0490 
 39 H72      8.5120     1.3230    18.3490 H     1 Q101   0.0490 
 40 H71      7.9600     1.3200    20.0480 H     1 Q101   0.0490 
 41 H6      -1.3920    11.3940    19.1560 H     1 Q101   0.1940 
 42 H5       0.8340    11.8280    20.2930 H     1 Q101   0.1560 
 43 H3      -1.5860    10.8460    22.8590 H     1 Q101   0.1600 
 44 H26      5.2590     2.8620    18.6410 H     1 Q101   0.1600 
 45 H24      6.6470     6.2760    20.8710 H     1 Q101   0.1630 
 46 H21      4.5310     7.4080    20.4560 H     1 Q101   0.1530 
 47 H2      -0.6750     9.8980    25.0990 H     1 Q101   0.1720 
 48 H12     -0.4580     6.6880    18.7940 H     1 Q101   0.0910 
 49 H1      -0.2410     7.7470    21.2880 H     1 Q101   0.4670 
@<TRIPOS>BOND
  1   1   2  am  
  2   1   9  1   
  3   1  49  1   
  4   2  21  2   
  5   2  29  1   
  6   2  30  2   
  7   3  11  1   
  8   3  12  1   
  9   3  19  am  
 10   4   7  1   
 11   4   8  1   
 12   4  18  am  
 13   5  19  2   
 14   6  18  2   
 15   7  38  1   
 16   7  39  1   
 17   7  40  1   
 18   8  35  1   
 19   8  36  1   
 20   8  37  1   
 21   9  10  1   
 22   9  19  1   
 23   9  48  1   
 24  10  11  1   
 25  10  33  1   
 26  10  34  1   
 27  11  31  1   
 28  11  32  1   
 29  12  13  ar  
 30  12  14  ar  
 31  13  15  ar  
 32  13  46  1   
 33  14  16  ar  
 34  14  20  1   
 35  15  17  ar  
 36  15  45  1   
 37  16  17  ar  
 38  16  44  1   
 39  17  18  1   
 40  22  23  1   
 41  23  24  2   
 42  23  25  1   
 43  24  26  1   
 44  24  47  1   
 45  25  27  1   
 46  26  27  2   
 47  26  43  1   
 48  27  28  1   
 49  28  29  2   
 50  28  42  1   
 51  29  41  1   
@<TRIPOS>SUBSTRUCTURE
  1 Q101   3 GROUP 4 **** **** 0

# MOE 2011.10 (io_trps.svl 2011.10)

@<TRIPOS>MOLECULE
FXA101_100
49 51 1 0 0 
SMALL
USER_CHARGES


@<TRIPOS>ATOM
  1 N1       3.0990    -5.4220    16.6750 N.am  1 Q101  -0.8960 
  2 S1       3.4870    -4.7110    15.2770 S.o2  1 Q101   1.3220 
  3 N2       1.2890    -5.1060    19.5880 N.am  1 Q101  -0.3970 
  4 N3       2.5400    -3.9710    25.8670 N.am  1 Q101  -0.4840 
  5 O3       2.9610    -3.6470    18.9680 O.2   1 Q101  -0.6040 
  6 O4       0.3790    -4.4880    25.8630 O.2   1 Q101  -0.6060 
  7 C7       2.9330    -2.5570    25.7660 C.3   1 Q101   0.0840 
  8 C8       3.4080    -4.8720    26.6440 C.3   1 Q101   0.0840 
  9 C12      1.8560    -5.0810    17.3260 C.3   1 Q101   0.1690 
 10 C13      0.9520    -6.2890    17.5920 C.3   1 Q101  -0.1080 
 11 C14      0.3530    -6.0340    18.9700 C.3   1 Q101   0.1020 
 12 C15      1.3240    -4.8770    21.0000 C.ar  1 Q101   0.0330 
 13 C21      1.9610    -5.7630    21.8580 C.ar  1 Q101  -0.1060 
 14 C22      0.6950    -3.7720    21.5550 C.ar  1 Q101   0.1210 
 15 C24      1.9810    -5.5520    23.2220 C.ar  1 Q101  -0.0920 
 16 C26      0.6940    -3.5280    22.9190 C.ar  1 Q101  -0.1400 
 17 C27      1.3540    -4.4340    23.7500 C.ar  1 Q101  -0.1150 
 18 C28      1.4080    -4.2950    25.2360 C.2   1 Q101   0.6760 
 19 C50      2.1290    -4.5040    18.7100 C.2   1 Q101   0.6950 
 20 F1       0.0690    -2.9160    20.7310 F     1 Q101  -0.1400 
 21 O1       3.4860    -3.3130    15.5810 O.2   1 Q101  -0.5930 
 22 CL1     11.3350    -2.9970    15.1820 Cl    1 Q101  -0.0550 
 23 C1       9.7460    -3.6820    15.2340 C.2   1 Q101   0.0330 
 24 C2       9.3450    -4.7500    15.9660 C.2   1 Q101  -0.1460 
 25 S2       8.4960    -2.9810    14.2850 S.3   1 Q101   0.0240 
 26 C3       7.9910    -5.0250    15.7580 C.2   1 Q101  -0.1130 
 27 C4       7.3690    -4.1600    14.8660 C.2   1 Q101  -0.0920 
 28 C5       5.9550    -4.2480    14.4840 C.2   1 Q101   0.0810 
 29 C6       5.0970    -5.2020    14.8450 C.2   1 Q101  -0.4200 
 30 O2       2.5350    -5.2760    14.3630 O.2   1 Q101  -0.5930 
 31 H142     0.2660    -6.9510    19.5620 H     1 Q101   0.0600 
 32 H141    -0.6250    -5.5470    18.8940 H     1 Q101   0.0600 
 33 H132     0.1860    -6.4150    16.8200 H     1 Q101   0.0720 
 34 H131     1.5480    -7.2090    17.6160 H     1 Q101   0.0720 
 35 H83      4.2360    -5.1940    26.0160 H     1 Q101   0.0490 
 36 H82      3.7810    -4.3390    27.5220 H     1 Q101   0.0490 
 37 H81      2.8220    -5.7270    26.9720 H     1 Q101   0.0490 
 38 H73      2.1740    -1.9490    26.2640 H     1 Q101   0.0490 
 39 H72      3.9100    -2.3950    26.2280 H     1 Q101   0.0490 
 40 H71      2.9740    -2.2610    24.7120 H     1 Q101   0.0490 
 41 H6       5.3300    -6.2570    14.8730 H     1 Q101   0.1940 
 42 H5       5.6100    -3.4020    13.8900 H     1 Q101   0.1560 
 43 H3       7.4620    -5.8300    16.2590 H     1 Q101   0.1600 
 44 H26      0.2000    -2.6510    23.3150 H     1 Q101   0.1600 
 45 H24      2.4550    -6.2790    23.8680 H     1 Q101   0.1630 
 46 H21      2.4450    -6.6520    21.4620 H     1 Q101   0.1530 
 47 H2       9.9800    -5.3170    16.6330 H     1 Q101   0.1720 
 48 H12      1.2830    -4.3250    16.7760 H     1 Q101   0.0910 
 49 H1       3.8780    -5.6930    17.2810 H     1 Q101   0.4670 
@<TRIPOS>BOND
  1   1   2  am  
  2   1   9  1   
  3   1  49  1   
  4   2  21  2   
  5   2  29  1   
  6   2  30  2   
  7   3  11  1   
  8   3  12  1   
  9   3  19  am  
 10   4   7  1   
 11   4   8  1   
 12   4  18  am  
 13   5  19  2   
 14   6  18  2   
 15   7  38  1   
 16   7  39  1   
 17   7  40  1   
 18   8  35  1   
 19   8  36  1   
 20   8  37  1   
 21   9  10  1   
 22   9  19  1   
 23   9  48  1   
 24  10  11  1   
 25  10  33  1   
 26  10  34  1   
 27  11  31  1   
 28  11  32  1   
 29  12  13  ar  
 30  12  14  ar  
 31  13  15  ar  
 32  13  46  1   
 33  14  16  ar  
 34  14  20  1   
 35  15  17  ar  
 36  15  45  1   
 37  16  17  ar  
 38  16  44  1   
 39  17  18  1   
 40  22  23  1   
 41  23  24  2   
 42  23  25  1   
 43  24  26  1   
 44  24  47  1   
 45  25  27  1   
 46  26  27  2   
 47  26  43  1   
 48  27  28  1   
 49  28  29  2   
 50  28  42  1   
 51  29  41  1   
@<TRIPOS>SUBSTRUCTURE
  1 Q101   5 GROUP 4 **** **** 0

# MOE 2011.10 (io_trps.svl 2011.10)

@<TRIPOS>MOLECULE
FXA101_101
49 51 1 0 0 
SMALL
USER_CHARGES


@<TRIPOS>ATOM
  1 N1       5.5280     7.5970    21.9410 N.am  1 Q101  -0.8960 
  2 S1       6.4810     7.7690    23.2330 S.o2  1 Q101   1.3220 
  3 N2       5.5900     7.6870    18.4980 N.am  1 Q101  -0.3970 
  4 N3       3.0080     6.4200    12.6050 N.am  1 Q101  -0.4840 
  5 O3       3.6530     7.8350    19.7370 O.2   1 Q101  -0.6040 
  6 O4       3.2480     4.4500    13.6050 O.2   1 Q101  -0.6060 
  7 C7       3.7360     6.1630    11.3520 C.3   1 Q101   0.0840 
  8 C8       1.9630     7.4580    12.5920 C.3   1 Q101   0.0840 
  9 C12      5.8330     8.3220    20.7290 C.3   1 Q101   0.1690 
 10 C13      7.2180     8.0020    20.1560 C.3   1 Q101  -0.1080 
 11 C14      7.0140     7.9490    18.6460 C.3   1 Q101   0.1020 
 12 C15      5.0210     7.2030    17.2780 C.ar  1 Q101   0.0330 
 13 C21      4.5430     5.9040    17.1720 C.ar  1 Q101  -0.1060 
 14 C22      4.9570     8.0130    16.1540 C.ar  1 Q101   0.1210 
 15 C24      4.0090     5.4310    15.9900 C.ar  1 Q101  -0.0920 
 16 C26      4.4290     7.5720    14.9510 C.ar  1 Q101  -0.1400 
 17 C27      3.9480     6.2650    14.8840 C.ar  1 Q101  -0.1150 
 18 C28      3.3740     5.6640    13.6430 C.2   1 Q101   0.6760 
 19 C50      4.8660     7.9220    19.6210 C.2   1 Q101   0.6950 
 20 F1       5.4280     9.2680    16.2470 F     1 Q101  -0.1400 
 21 O1       7.6700     7.0500    22.8930 O.2   1 Q101  -0.5930 
 22 CL1     10.7330     7.0130    27.6430 Cl    1 Q101  -0.0550 
 23 C1      10.3080     7.9940    26.2810 C.2   1 Q101   0.0330 
 24 C2      11.1530     8.7060    25.4980 C.2   1 Q101  -0.1460 
 25 S2       8.6570     8.1160    25.8170 S.3   1 Q101   0.0240 
 26 C3      10.4580     9.3830    24.4920 C.2   1 Q101  -0.1130 
 27 C4       9.0840     9.1780    24.5180 C.2   1 Q101  -0.0920 
 28 C5       8.1440     9.7830    23.5670 C.2   1 Q101   0.0810 
 29 C6       6.8620     9.4560    23.4080 C.2   1 Q101  -0.4200 
 30 O2       5.6310     7.3400    24.3090 O.2   1 Q101  -0.5930 
 31 H142     7.6060     7.1600    18.1730 H     1 Q101   0.0600 
 32 H141     7.2440     8.9140    18.1810 H     1 Q101   0.0600 
 33 H132     7.9720     8.7380    20.4510 H     1 Q101   0.0720 
 34 H131     7.5580     7.0220    20.5140 H     1 Q101   0.0720 
 35 H83      2.4310     8.4320    12.7170 H     1 Q101   0.0490 
 36 H82      1.4260     7.4120    11.6410 H     1 Q101   0.0490 
 37 H81      1.2650     7.2630    13.4020 H     1 Q101   0.0490 
 38 H73      3.5140     5.1440    11.0240 H     1 Q101   0.0490 
 39 H72      3.4430     6.8810    10.5820 H     1 Q101   0.0490 
 40 H71      4.8140     6.2400    11.5320 H     1 Q101   0.0490 
 41 H6       6.0450    10.1640    23.3940 H     1 Q101   0.1940 
 42 H5       8.5710    10.6070    22.9960 H     1 Q101   0.1560 
 43 H3      10.9450    10.0010    23.7430 H     1 Q101   0.1600 
 44 H26      4.3890     8.2360    14.0980 H     1 Q101   0.1600 
 45 H24      3.6770     4.4030    15.9280 H     1 Q101   0.1630 
 46 H21      4.5960     5.2330    18.0250 H     1 Q101   0.1530 
 47 H2      12.2260     8.7460    25.6220 H     1 Q101   0.1720 
 48 H12      5.7440     9.4070    20.8510 H     1 Q101   0.0910 
 49 H1       4.5400     7.4010    22.1240 H     1 Q101   0.4670 
@<TRIPOS>BOND
  1   1   2  am  
  2   1   9  1   
  3   1  49  1   
  4   2  21  2   
  5   2  29  1   
  6   2  30  2   
  7   3  11  1   
  8   3  12  1   
  9   3  19  am  
 10   4   7  1   
 11   4   8  1   
 12   4  18  am  
 13   5  19  2   
 14   6  18  2   
 15   7  38  1   
 16   7  39  1   
 17   7  40  1   
 18   8  35  1   
 19   8  36  1   
 20   8  37  1   
 21   9  10  1   
 22   9  19  1   
 23   9  48  1   
 24  10  11  1   
 25  10  33  1   
 26  10  34  1   
 27  11  31  1   
 28  11  32  1   
 29  12  13  ar  
 30  12  14  ar  
 31  13  15  ar  
 32  13  46  1   
 33  14  16  ar  
 34  14  20  1   
 35  15  17  ar  
 36  15  45  1   
 37  16  17  ar  
 38  16  44  1   
 39  17  18  1   
 40  22  23  1   
 41  23  24  2   
 42  23  25  1   
 43  24  26  1   
 44  24  47  1   
 45  25  27  1   
 46  26  27  2   
 47  26  43  1   
 48  27  28  1   
 49  28  29  2   
 50  28  42  1   
 51  29  41  1   
@<TRIPOS>SUBSTRUCTURE
  1 Q101   3 GROUP 4 **** **** 0

# MOE 2011.10 (io_trps.svl 2011.10)

@<TRIPOS>MOLECULE
FXA101_102
49 51 1 0 0 
SMALL
USER_CHARGES


@<TRIPOS>ATOM
  1 N1       7.2340     9.0520    21.7480 N.am  1 Q101  -0.8960 
  2 S1       8.2810     8.6210    22.8990 S.o2  1 Q101   1.3220 
  3 N2       5.3670     7.3730    19.3890 N.am  1 Q101  -0.3970 
  4 N3       4.2020     4.4640    13.6830 N.am  1 Q101  -0.4840 
  5 O3       7.4740     6.7120    20.0460 O.2   1 Q101  -0.6040 
  6 O4       6.4200     4.5490    13.7860 O.2   1 Q101  -0.6060 
  7 C7       3.1000     5.4330    13.7990 C.3   1 Q101   0.0840 
  8 C8       3.9530     3.2280    12.9240 C.3   1 Q101   0.0840 
  9 C12      6.1160     8.1900    21.4420 C.3   1 Q101   0.1690 
 10 C13      4.8460     8.9500    21.0460 C.3   1 Q101  -0.1080 
 11 C14      4.2390     8.1330    19.9100 C.3   1 Q101   0.1020 
 12 C15      5.3450     6.7530    18.1000 C.ar  1 Q101   0.0330 
 13 C21      5.1560     5.3850    17.9620 C.ar  1 Q101  -0.1060 
 14 C22      5.5410     7.5020    16.9500 C.ar  1 Q101   0.1210 
 15 C24      5.1520     4.7830    16.7210 C.ar  1 Q101  -0.0920 
 16 C26      5.5440     6.9320    15.6860 C.ar  1 Q101  -0.1400 
 17 C27      5.3400     5.5560    15.5850 C.ar  1 Q101  -0.1150 
 18 C28      5.3400     4.8200    14.2860 C.2   1 Q101   0.6760 
 19 C50      6.4350     7.3290    20.2250 C.2   1 Q101   0.6950 
 20 F1       5.7340     8.8250    17.0770 F     1 Q101  -0.1400 
 21 O1       9.4840     9.3170    22.5610 O.2   1 Q101  -0.5930 
 22 CL1     13.4100     7.3220    26.0240 Cl    1 Q101  -0.0550 
 23 C1      11.7060     7.5400    26.2460 C.2   1 Q101   0.0330 
 24 C2      10.9820     7.2150    27.3430 C.2   1 Q101  -0.1460 
 25 S2      10.7770     8.2420    24.9800 S.3   1 Q101   0.0240 
 26 C3       9.6320     7.5300    27.1680 C.2   1 Q101  -0.1130 
 27 C4       9.3390     8.0950    25.9330 C.2   1 Q101  -0.0920 
 28 C5       7.9940     8.5070    25.5140 C.2   1 Q101   0.0810 
 29 C6       7.6870     9.2090    24.4240 C.2   1 Q101  -0.4200 
 30 O2       8.2130     7.1870    22.8630 O.2   1 Q101  -0.5930 
 31 H142     3.8030     8.7650    19.1300 H     1 Q101   0.0600 
 32 H141     3.4860     7.4320    20.2840 H     1 Q101   0.0600 
 33 H132     4.1560     9.0750    21.8850 H     1 Q101   0.0720 
 34 H131     5.1030     9.9510    20.6800 H     1 Q101   0.0720 
 35 H83      3.4510     2.5110    13.5700 H     1 Q101   0.0490 
 36 H82      3.3300     3.4610    12.0560 H     1 Q101   0.0490 
 37 H81      4.9040     2.8300    12.5780 H     1 Q101   0.0490 
 38 H73      3.3920     6.3530    13.2860 H     1 Q101   0.0490 
 39 H72      2.1850     5.0290    13.3610 H     1 Q101   0.0490 
 40 H71      2.9270     5.6680    14.8550 H     1 Q101   0.0490 
 41 H6       7.0860    10.1060    24.4200 H     1 Q101   0.1940 
 42 H5       7.2020     8.1370    26.1650 H     1 Q101   0.1560 
 43 H3       8.8770     7.3660    27.9320 H     1 Q101   0.1600 
 44 H26      5.6920     7.5500    14.8100 H     1 Q101   0.1600 
 45 H24      5.0380     3.7100    16.6470 H     1 Q101   0.1630 
 46 H21      5.0220     4.7620    18.8430 H     1 Q101   0.1530 
 47 H2      11.3870     6.7760    28.2450 H     1 Q101   0.1720 
 48 H12      5.8760     7.5020    22.2610 H     1 Q101   0.0910 
 49 H1       7.6070     9.6130    20.9780 H     1 Q101   0.4670 
@<TRIPOS>BOND
  1   1   2  am  
  2   1   9  1   
  3   1  49  1   
  4   2  21  2   
  5   2  29  1   
  6   2  30  2   
  7   3  11  1   
  8   3  12  1   
  9   3  19  am  
 10   4   7  1   
 11   4   8  1   
 12   4  18  am  
 13   5  19  2   
 14   6  18  2   
 15   7  38  1   
 16   7  39  1   
 17   7  40  1   
 18   8  35  1   
 19   8  36  1   
 20   8  37  1   
 21   9  10  1   
 22   9  19  1   
 23   9  48  1   
 24  10  11  1   
 25  10  33  1   
 26  10  34  1   
 27  11  31  1   
 28  11  32  1   
 29  12  13  ar  
 30  12  14  ar  
 31  13  15  ar  
 32  13  46  1   
 33  14  16  ar  
 34  14  20  1   
 35  15  17  ar  
 36  15  45  1   
 37  16  17  ar  
 38  16  44  1   
 39  17  18  1   
 40  22  23  1   
 41  23  24  2   
 42  23  25  1   
 43  24  26  1   
 44  24  47  1   
 45  25  27  1   
 46  26  27  2   
 47  26  43  1   
 48  27  28  1   
 49  28  29  2   
 50  28  42  1   
 51  29  41  1   
@<TRIPOS>SUBSTRUCTURE
  1 Q101  19 GROUP 4 **** **** 0

# MOE 2011.10 (io_trps.svl 2011.10)

@<TRIPOS>MOLECULE
FXA101_103
49 51 1 0 0 
SMALL
USER_CHARGES


@<TRIPOS>ATOM
  1 N1       8.1830    10.9460    22.5400 N.am  1 Q101  -0.8960 
  2 S1       9.0450    10.0900    23.6060 S.o2  1 Q101   1.3220 
  3 N2       5.8630    11.1190    20.0000 N.am  1 Q101  -0.3970 
  4 N3       2.9320    13.5810    14.7570 N.am  1 Q101  -0.4840 
  5 O3       8.1310    11.3560    19.6670 O.2   1 Q101  -0.6040 
  6 O4       4.8500    14.7020    14.8180 O.2   1 Q101  -0.6060 
  7 C7       2.9080    13.6520    13.2880 C.3   1 Q101   0.0840 
  8 C8       1.6910    13.1910    15.4470 C.3   1 Q101   0.0840 
  9 C12      7.2500    10.2680    21.6710 C.3   1 Q101   0.1690 
 10 C13      5.8090    10.2800    22.1890 C.3   1 Q101  -0.1080 
 11 C14      4.9480    10.5020    20.9500 C.3   1 Q101   0.1020 
 12 C15      5.4060    11.8260    18.8430 C.ar  1 Q101   0.0330 
 13 C21      5.1040    11.1580    17.6640 C.ar  1 Q101  -0.1060 
 14 C22      5.2790    13.2070    18.8600 C.ar  1 Q101   0.1210 
 15 C24      4.6790    11.8400    16.5420 C.ar  1 Q101  -0.0920 
 16 C26      4.8570    13.9250    17.7530 C.ar  1 Q101  -0.1400 
 17 C27      4.5510    13.2200    16.5880 C.ar  1 Q101  -0.1150 
 18 C28      4.1050    13.8780    15.3240 C.2   1 Q101   0.6760 
 19 C50      7.1720    10.9810    20.3260 C.2   1 Q101   0.6950 
 20 F1       5.5790    13.8600    19.9940 F     1 Q101  -0.1400 
 21 O1       9.5870    11.0740    24.4910 O.2   1 Q101  -0.5930 
 22 CL1     13.4400     7.2760    27.6830 Cl    1 Q101  -0.0550 
 23 C1      12.0540     7.5380    26.6780 C.2   1 Q101   0.0330 
 24 C2      11.9760     7.3560    25.3380 C.2   1 Q101  -0.1460 
 25 S2      10.5880     8.0820    27.3930 S.3   1 Q101   0.0240 
 26 C3      10.7010     7.6690    24.8590 C.2   1 Q101  -0.1130 
 27 C4       9.8150     8.0880    25.8440 C.2   1 Q101  -0.0920 
 28 C5       8.4220     8.4740    25.5880 C.2   1 Q101   0.0810 
 29 C6       7.9550     9.0630    24.4880 C.2   1 Q101  -0.4200 
 30 O2       9.8930     9.2990    22.7590 O.2   1 Q101  -0.5930 
 31 H142     4.0940    11.1560    21.1490 H     1 Q101   0.0600 
 32 H141     4.6000     9.5510    20.5340 H     1 Q101   0.0600 
 33 H132     5.5480     9.3590    22.7190 H     1 Q101   0.0720 
 34 H131     5.6660    11.1130    22.8890 H     1 Q101   0.0720 
 35 H83      1.0510    14.0650    15.5450 H     1 Q101   0.0490 
 36 H82      1.1890    12.4140    14.8650 H     1 Q101   0.0490 
 37 H81      1.9440    12.7920    16.4260 H     1 Q101   0.0490 
 38 H73      3.5880    12.8920    12.8930 H     1 Q101   0.0490 
 39 H72      1.8960    13.4850    12.9110 H     1 Q101   0.0490 
 40 H71      3.2630    14.6350    12.9610 H     1 Q101   0.0490 
 41 H6       6.9540     8.9360    24.1020 H     1 Q101   0.1940 
 42 H5       7.7360     8.1830    26.3840 H     1 Q101   0.1560 
 43 H3      10.4170     7.5780    23.8150 H     1 Q101   0.1600 
 44 H26      4.7620    15.0020    17.8050 H     1 Q101   0.1600 
 45 H24      4.4860    11.2960    15.6270 H     1 Q101   0.1630 
 46 H21      5.2130    10.0780    17.6070 H     1 Q101   0.1530 
 47 H2      12.7860     7.0070    24.7130 H     1 Q101   0.1720 
 48 H12      7.5420     9.2320    21.4630 H     1 Q101   0.0910 
 49 H1       8.6230    11.7940    22.1730 H     1 Q101   0.4670 
@<TRIPOS>BOND
  1   1   2  am  
  2   1   9  1   
  3   1  49  1   
  4   2  21  2   
  5   2  29  1   
  6   2  30  2   
  7   3  11  1   
  8   3  12  1   
  9   3  19  am  
 10   4   7  1   
 11   4   8  1   
 12   4  18  am  
 13   5  19  2   
 14   6  18  2   
 15   7  38  1   
 16   7  39  1   
 17   7  40  1   
 18   8  35  1   
 19   8  36  1   
 20   8  37  1   
 21   9  10  1   
 22   9  19  1   
 23   9  48  1   
 24  10  11  1   
 25  10  33  1   
 26  10  34  1   
 27  11  31  1   
 28  11  32  1   
 29  12  13  ar  
 30  12  14  ar  
 31  13  15  ar  
 32  13  46  1   
 33  14  16  ar  
 34  14  20  1   
 35  15  17  ar  
 36  15  45  1   
 37  16  17  ar  
 38  16  44  1   
 39  17  18  1   
 40  22  23  1   
 41  23  24  2   
 42  23  25  1   
 43  24  26  1   
 44  24  47  1   
 45  25  27  1   
 46  26  27  2   
 47  26  43  1   
 48  27  28  1   
 49  28  29  2   
 50  28  42  1   
 51  29  41  1   
@<TRIPOS>SUBSTRUCTURE
  1 Q101  19 GROUP 4 **** **** 0

# MOE 2011.10 (io_trps.svl 2011.10)

@<TRIPOS>MOLECULE
FXA101_104
49 51 1 0 0 
SMALL
USER_CHARGES


@<TRIPOS>ATOM
  1 N1       4.5480     8.7210    21.1500 N.am  1 Q101  -0.8960 
  2 S1       5.0030     9.6420    22.3970 S.o2  1 Q101   1.3220 
  3 N2       3.9050     5.5540    19.9590 N.am  1 Q101  -0.3970 
  4 N3       6.6370     1.3150    15.8640 N.am  1 Q101  -0.4840 
  5 O3       6.0260     6.3360    20.4060 O.2   1 Q101  -0.6040 
  6 O4       4.5000     0.7030    15.8640 O.2   1 Q101  -0.6060 
  7 C7       7.6480     1.7610    16.8360 C.3   1 Q101   0.0840 
  8 C8       7.1100     0.7460    14.5920 C.3   1 Q101   0.0840 
  9 C12      4.0520     7.3870    21.3940 C.3   1 Q101   0.1690 
 10 C13      2.5860     7.1950    20.9920 C.3   1 Q101  -0.1080 
 11 C14      2.5300     5.8050    20.3670 C.3   1 Q101   0.1020 
 12 C15      4.2510     4.5380    19.0130 C.ar  1 Q101   0.0330 
 13 C21      4.5870     3.2560    19.4240 C.ar  1 Q101  -0.1060 
 14 C22      4.2880     4.8160    17.6550 C.ar  1 Q101   0.1210 
 15 C24      4.9380     2.2790    18.5140 C.ar  1 Q101  -0.0920 
 16 C26      4.6360     3.8620    16.7120 C.ar  1 Q101  -0.1400 
 17 C27      4.9570     2.5800    17.1610 C.ar  1 Q101  -0.1150 
 18 C28      5.3670     1.4700    16.2500 C.2   1 Q101   0.6760 
 19 C50      4.8120     6.3800    20.5380 C.2   1 Q101   0.6950 
 20 F1       3.9740     6.0580    17.2520 F     1 Q101  -0.1400 
 21 O1       3.9480     9.4880    23.3510 O.2   1 Q101  -0.5930 
 22 CL1     11.6990     7.6050    26.1570 Cl    1 Q101  -0.0550 
 23 C1      10.5910     8.6450    25.3270 C.2   1 Q101   0.0330 
 24 C2      10.7080     9.9840    25.1550 C.2   1 Q101  -0.1460 
 25 S2       9.1760     7.9730    24.6190 S.3   1 Q101   0.0240 
 26 C3       9.6240    10.4980    24.4370 C.2   1 Q101  -0.1130 
 27 C4       8.6880     9.5400    24.0660 C.2   1 Q101  -0.0920 
 28 C5       7.4640     9.8340    23.3110 C.2   1 Q101   0.0810 
 29 C6       6.4710     8.9840    23.0540 C.2   1 Q101  -0.4200 
 30 O2       5.2650    10.9080    21.7720 O.2   1 Q101  -0.5930 
 31 H142     1.8550     5.7630    19.5070 H     1 Q101   0.0600 
 32 H141     2.2400     5.0500    21.1040 H     1 Q101   0.0600 
 33 H132     1.9040     7.2990    21.8420 H     1 Q101   0.0720 
 34 H131     2.2980     7.9440    20.2450 H     1 Q101   0.0720 
 35 H83      7.3460     1.5570    13.9070 H     1 Q101   0.0490 
 36 H82      7.9990     0.1370    14.7820 H     1 Q101   0.0490 
 37 H81      6.3300     0.1110    14.1790 H     1 Q101   0.0490 
 38 H73      7.5680     1.1370    17.7310 H     1 Q101   0.0490 
 39 H72      8.6510     1.6840    16.4110 H     1 Q101   0.0490 
 40 H71      7.4500     2.7990    17.1220 H     1 Q101   0.0490 
 41 H6       6.5200     7.9160    23.2130 H     1 Q101   0.1940 
 42 H5       7.3870    10.8740    22.9940 H     1 Q101   0.1560 
 43 H3       9.5260    11.5460    24.1740 H     1 Q101   0.1600 
 44 H26      4.6460     4.1140    15.6600 H     1 Q101   0.1600 
 45 H24      5.2290     1.2990    18.8670 H     1 Q101   0.1630 
 46 H21      4.5910     3.0060    20.4820 H     1 Q101   0.1530 
 47 H2      11.5320    10.5850    25.5150 H     1 Q101   0.1720 
 48 H12      4.1770     7.0730    22.4370 H     1 Q101   0.0910 
 49 H1       5.0380     8.8760    20.2650 H     1 Q101   0.4670 
@<TRIPOS>BOND
  1   1   2  am  
  2   1   9  1   
  3   1  49  1   
  4   2  21  2   
  5   2  29  1   
  6   2  30  2   
  7   3  11  1   
  8   3  12  1   
  9   3  19  am  
 10   4   7  1   
 11   4   8  1   
 12   4  18  am  
 13   5  19  2   
 14   6  18  2   
 15   7  38  1   
 16   7  39  1   
 17   7  40  1   
 18   8  35  1   
 19   8  36  1   
 20   8  37  1   
 21   9  10  1   
 22   9  19  1   
 23   9  48  1   
 24  10  11  1   
 25  10  33  1   
 26  10  34  1   
 27  11  31  1   
 28  11  32  1   
 29  12  13  ar  
 30  12  14  ar  
 31  13  15  ar  
 32  13  46  1   
 33  14  16  ar  
 34  14  20  1   
 35  15  17  ar  
 36  15  45  1   
 37  16  17  ar  
 38  16  44  1   
 39  17  18  1   
 40  22  23  1   
 41  23  24  2   
 42  23  25  1   
 43  24  26  1   
 44  24  47  1   
 45  25  27  1   
 46  26  27  2   
 47  26  43  1   
 48  27  28  1   
 49  28  29  2   
 50  28  42  1   
 51  29  41  1   
@<TRIPOS>SUBSTRUCTURE
  1 Q101   5 GROUP 4 **** **** 0

# MOE 2011.10 (io_trps.svl 2011.10)

@<TRIPOS>MOLECULE
FXA101_105
49 51 1 0 0 
SMALL
USER_CHARGES


@<TRIPOS>ATOM
  1 N1       4.4480     8.3140    22.7480 N.am  1 Q101  -0.8960 
  2 S1       5.0090     9.3220    23.8780 S.o2  1 Q101   1.3220 
  3 N2       4.9750     7.1680    19.5420 N.am  1 Q101  -0.3970 
  4 N3       2.3500     8.1950    13.6640 N.am  1 Q101  -0.4840 
  5 O3       4.6760     9.3930    20.0620 O.2   1 Q101  -0.6040 
  6 O4       4.0810     6.8610    13.2600 O.2   1 Q101  -0.6060 
  7 C7       1.8000     7.8360    12.3470 C.3   1 Q101   0.0840 
  8 C8       1.7120     9.3010    14.3960 C.3   1 Q101   0.0840 
  9 C12      5.3560     7.7740    21.7620 C.3   1 Q101   0.1690 
 10 C13      5.3200     6.2450    21.6700 C.3   1 Q101  -0.1080 
 11 C14      5.4270     5.9400    20.1800 C.3   1 Q101   0.1020 
 12 C15      4.5670     7.2160    18.1720 C.ar  1 Q101   0.0330 
 13 C21      5.4070     7.7170    17.1870 C.ar  1 Q101  -0.1060 
 14 C22      3.3040     6.7880    17.7930 C.ar  1 Q101   0.1210 
 15 C24      5.0080     7.7800    15.8680 C.ar  1 Q101  -0.0920 
 16 C26      2.8680     6.8360    16.4780 C.ar  1 Q101  -0.1400 
 17 C27      3.7430     7.3350    15.5130 C.ar  1 Q101  -0.1150 
 18 C28      3.3880     7.4580    14.0680 C.2   1 Q101   0.6760 
 19 C50      4.9580     8.2440    20.3680 C.2   1 Q101   0.6950 
 20 F1       2.4820     6.3110    18.7430 F     1 Q101  -0.1400 
 21 O1       3.9410     9.4180    24.8260 O.2   1 Q101  -0.5930 
 22 CL1     11.7920     6.9870    27.2970 Cl    1 Q101  -0.0550 
 23 C1      10.7890     7.7340    26.0990 C.2   1 Q101   0.0330 
 24 C2      11.2020     8.4140    25.0030 C.2   1 Q101  -0.1460 
 25 S2       9.0790     7.6360    26.2540 S.3   1 Q101   0.0240 
 26 C3      10.1160     8.8830    24.2600 C.2   1 Q101  -0.1130 
 27 C4       8.8780     8.5530    24.7990 C.2   1 Q101  -0.0920 
 28 C5       7.5930     8.9350    24.2030 C.2   1 Q101   0.0810 
 29 C6       6.3840     8.5790    24.6380 C.2   1 Q101  -0.4200 
 30 O2       5.4250    10.4590    23.1060 O.2   1 Q101  -0.5930 
 31 H142     4.8000     5.0930    19.8830 H     1 Q101   0.0600 
 32 H141     6.4650     5.7540    19.8870 H     1 Q101   0.0600 
 33 H132     6.1190     5.7740    22.2510 H     1 Q101   0.0720 
 34 H131     4.3660     5.8640    22.0540 H     1 Q101   0.0720 
 35 H83      2.1060    10.2450    14.0250 H     1 Q101   0.0490 
 36 H82      0.6300     9.2530    14.2450 H     1 Q101   0.0490 
 37 H81      1.9250     9.1890    15.4560 H     1 Q101   0.0490 
 38 H73      1.3940     6.8220    12.4050 H     1 Q101   0.0490 
 39 H72      1.0170     8.5390    12.0510 H     1 Q101   0.0490 
 40 H71      2.6000     7.8440    11.5990 H     1 Q101   0.0490 
 41 H6       6.2010     7.8530    25.4170 H     1 Q101   0.1940 
 42 H5       7.6890     9.6150    23.3580 H     1 Q101   0.1560 
 43 H3      10.2220     9.4400    23.3340 H     1 Q101   0.1600 
 44 H26      1.8780     6.4850    16.2190 H     1 Q101   0.1600 
 45 H24      5.6720     8.2080    15.1280 H     1 Q101   0.1630 
 46 H21      6.3960     8.0830    17.4500 H     1 Q101   0.1530 
 47 H2      12.2360     8.5720    24.7260 H     1 Q101   0.1720 
 48 H12      6.3920     8.0940    21.9210 H     1 Q101   0.0910 
 49 H1       3.4780     8.4510    22.4540 H     1 Q101   0.4670 
@<TRIPOS>BOND
  1   1   2  am  
  2   1   9  1   
  3   1  49  1   
  4   2  21  2   
  5   2  29  1   
  6   2  30  2   
  7   3  11  1   
  8   3  12  1   
  9   3  19  am  
 10   4   7  1   
 11   4   8  1   
 12   4  18  am  
 13   5  19  2   
 14   6  18  2   
 15   7  38  1   
 16   7  39  1   
 17   7  40  1   
 18   8  35  1   
 19   8  36  1   
 20   8  37  1   
 21   9  10  1   
 22   9  19  1   
 23   9  48  1   
 24  10  11  1   
 25  10  33  1   
 26  10  34  1   
 27  11  31  1   
 28  11  32  1   
 29  12  13  ar  
 30  12  14  ar  
 31  13  15  ar  
 32  13  46  1   
 33  14  16  ar  
 34  14  20  1   
 35  15  17  ar  
 36  15  45  1   
 37  16  17  ar  
 38  16  44  1   
 39  17  18  1   
 40  22  23  1   
 41  23  24  2   
 42  23  25  1   
 43  24  26  1   
 44  24  47  1   
 45  25  27  1   
 46  26  27  2   
 47  26  43  1   
 48  27  28  1   
 49  28  29  2   
 50  28  42  1   
 51  29  41  1   
@<TRIPOS>SUBSTRUCTURE
  1 Q101  19 GROUP 4 **** **** 0

# MOE 2011.10 (io_trps.svl 2011.10)

@<TRIPOS>MOLECULE
FXA101_106
49 51 1 0 0 
SMALL
USER_CHARGES


@<TRIPOS>ATOM
  1 N1       7.4540     9.7290    21.8740 N.am  1 Q101  -0.8960 
  2 S1       8.4040     9.1240    23.0310 S.o2  1 Q101   1.3220 
  3 N2       4.9440     9.2830    19.5580 N.am  1 Q101  -0.3970 
  4 N3       2.0040    10.2490    13.8140 N.am  1 Q101  -0.4840 
  5 O3       7.1600     8.8200    19.1320 O.2   1 Q101  -0.6040 
  6 O4       4.1310     9.8770    13.2900 O.2   1 Q101  -0.6060 
  7 C7       1.7070    10.1650    12.3750 C.3   1 Q101   0.0840 
  8 C8       0.8950    10.5740    14.7270 C.3   1 Q101   0.0840 
  9 C12      6.3130     8.9700    21.4200 C.3   1 Q101   0.1690 
 10 C13      4.9700     9.5420    21.8890 C.3   1 Q101  -0.1080 
 11 C14      4.0380     9.3800    20.6940 C.3   1 Q101   0.1020 
 12 C15      4.5090     9.4850    18.2100 C.ar  1 Q101   0.0330 
 13 C21      4.2020     8.4130    17.3840 C.ar  1 Q101  -0.1060 
 14 C22      4.4110    10.7630    17.6810 C.ar  1 Q101   0.1210 
 15 C24      3.7980     8.6060    16.0780 C.ar  1 Q101  -0.0920 
 16 C26      4.0110    10.9960    16.3750 C.ar  1 Q101  -0.1400 
 17 C27      3.6980     9.8950    15.5760 C.ar  1 Q101  -0.1150 
 18 C28      3.2750    10.0100    14.1490 C.2   1 Q101   0.6760 
 19 C50      6.2270     9.0080    19.8990 C.2   1 Q101   0.6950 
 20 F1       4.7170    11.8040    18.4720 F     1 Q101  -0.1400 
 21 O1       9.6970     9.6660    22.7450 O.2   1 Q101  -0.5930 
 22 CL1     13.6650     7.5830    25.6260 Cl    1 Q101  -0.0550 
 23 C1      11.9520     7.7160    25.8380 C.2   1 Q101   0.0330 
 24 C2      11.1370     6.8230    26.4480 C.2   1 Q101  -0.1460 
 25 S2      11.1360     9.1060    25.2390 S.3   1 Q101   0.0240 
 26 C3       9.8090     7.2580    26.4330 C.2   1 Q101  -0.1130 
 27 C4       9.6240     8.4850    25.8080 C.2   1 Q101  -0.0920 
 28 C5       8.3220     9.1470    25.6630 C.2   1 Q101   0.0810 
 29 C6       7.8530     9.7350    24.5630 C.2   1 Q101  -0.4200 
 30 O2       8.1490     7.7140    22.9410 O.2   1 Q101  -0.5930 
 31 H142     3.3590    10.2310    20.5780 H     1 Q101   0.0600 
 32 H141     3.4610     8.4520    20.7630 H     1 Q101   0.0600 
 33 H132     4.5930     9.0390    22.7840 H     1 Q101   0.0720 
 34 H131     5.0770    10.6060    22.1290 H     1 Q101   0.0720 
 35 H83      0.7520    11.6520    14.7400 H     1 Q101   0.0490 
 36 H82     -0.0120    10.0720    14.3790 H     1 Q101   0.0490 
 37 H81      1.1410    10.2090    15.7210 H     1 Q101   0.0490 
 38 H73      1.8740     9.1360    12.0460 H     1 Q101   0.0490 
 39 H72      0.6740    10.4610    12.1770 H     1 Q101   0.0490 
 40 H71      2.3880    10.8190    11.8200 H     1 Q101   0.0490 
 41 H6       7.1470    10.5520    24.5570 H     1 Q101   0.1940 
 42 H5       7.6980     9.0800    26.5530 H     1 Q101   0.1560 
 43 H3       8.9930     6.7000    26.8820 H     1 Q101   0.1600 
 44 H26      3.9380    12.0080    15.9990 H     1 Q101   0.1600 
 45 H24      3.6000     7.7500    15.4480 H     1 Q101   0.1630 
 46 H21      4.2890     7.3960    17.7570 H     1 Q101   0.1530 
 47 H2      11.4630     5.8950    26.8990 H     1 Q101   0.1720 
 48 H12      6.3660     7.9130    21.7080 H     1 Q101   0.0910 
 49 H1       7.9040    10.3400    21.1870 H     1 Q101   0.4670 
@<TRIPOS>BOND
  1   1   2  am  
  2   1   9  1   
  3   1  49  1   
  4   2  21  2   
  5   2  29  1   
  6   2  30  2   
  7   3  11  1   
  8   3  12  1   
  9   3  19  am  
 10   4   7  1   
 11   4   8  1   
 12   4  18  am  
 13   5  19  2   
 14   6  18  2   
 15   7  38  1   
 16   7  39  1   
 17   7  40  1   
 18   8  35  1   
 19   8  36  1   
 20   8  37  1   
 21   9  10  1   
 22   9  19  1   
 23   9  48  1   
 24  10  11  1   
 25  10  33  1   
 26  10  34  1   
 27  11  31  1   
 28  11  32  1   
 29  12  13  ar  
 30  12  14  ar  
 31  13  15  ar  
 32  13  46  1   
 33  14  16  ar  
 34  14  20  1   
 35  15  17  ar  
 36  15  45  1   
 37  16  17  ar  
 38  16  44  1   
 39  17  18  1   
 40  22  23  1   
 41  23  24  2   
 42  23  25  1   
 43  24  26  1   
 44  24  47  1   
 45  25  27  1   
 46  26  27  2   
 47  26  43  1   
 48  27  28  1   
 49  28  29  2   
 50  28  42  1   
 51  29  41  1   
@<TRIPOS>SUBSTRUCTURE
  1 Q101  19 GROUP 4 **** **** 0

# MOE 2011.10 (io_trps.svl 2011.10)

@<TRIPOS>MOLECULE
FXA101_107
49 51 1 0 0 
SMALL
USER_CHARGES


@<TRIPOS>ATOM
  1 N1       4.2760    11.1950    19.9640 N.am  1 Q101  -0.8960 
  2 S1       2.7470    11.5470    19.5810 S.o2  1 Q101   1.3220 
  3 N2       6.4140     9.2440    21.8320 N.am  1 Q101  -0.3970 
  4 N3      10.7830     7.9130    26.4850 N.am  1 Q101  -0.4840 
  5 O3       5.0580    10.8710    22.7410 O.2   1 Q101  -0.6040 
  6 O4      11.0640    10.0800    26.0800 O.2   1 Q101  -0.6060 
  7 C7      12.0970     7.3520    26.1290 C.3   1 Q101   0.0840 
  8 C8       9.9760     7.1930    27.4840 C.3   1 Q101   0.0840 
  9 C12      4.5870     9.9090    20.5440 C.3   1 Q101   0.1690 
 10 C13      5.5150     9.0530    19.6750 C.3   1 Q101  -0.1080 
 11 C14      6.4650     8.3820    20.6600 C.3   1 Q101   0.1020 
 12 C15      7.4110     9.2060    22.8580 C.ar  1 Q101   0.0330 
 13 C21      8.7320     9.5340    22.5910 C.ar  1 Q101  -0.1060 
 14 C22      7.0870     8.8110    24.1480 C.ar  1 Q101   0.1210 
 15 C24      9.6980     9.4820    23.5750 C.ar  1 Q101  -0.0920 
 16 C26      8.0290     8.7450    25.1610 C.ar  1 Q101  -0.1400 
 17 C27      9.3460     9.0930    24.8590 C.ar  1 Q101  -0.1150 
 18 C28     10.4570     9.0450    25.8550 C.2   1 Q101   0.6760 
 19 C50      5.3560    10.0930    21.8470 C.2   1 Q101   0.6950 
 20 F1       5.8110     8.4820    24.4100 F     1 Q101  -0.1400 
 21 O1       2.8390    12.7810    18.8630 O.2   1 Q101  -0.5930 
 22 CL1      6.5530    12.0470    14.4510 Cl    1 Q101  -0.0550 
 23 C1       4.9320    11.7620    14.9890 C.2   1 Q101   0.0330 
 24 C2       3.7900    12.0660    14.3260 C.2   1 Q101  -0.1460 
 25 S2       4.6720    11.0140    16.5160 S.3   1 Q101   0.0240 
 26 C3       2.6630    11.6950    15.0640 C.2   1 Q101  -0.1130 
 27 C4       2.9580    11.1090    16.2890 C.2   1 Q101  -0.0920 
 28 C5       1.9460    10.6400    17.2420 C.2   1 Q101   0.0810 
 29 C6       2.1540    10.3080    18.5160 C.2   1 Q101  -0.4200 
 30 O2       2.0800    11.4690    20.8500 O.2   1 Q101  -0.5930 
 31 H142     7.4860     8.3130    20.2720 H     1 Q101   0.0600 
 32 H141     6.1070     7.3870    20.9420 H     1 Q101   0.0600 
 33 H132     4.9650     8.3300    19.0660 H     1 Q101   0.0720 
 34 H131     6.0880     9.6920    18.9910 H     1 Q101   0.0720 
 35 H83      9.4460     6.3810    26.9910 H     1 Q101   0.0490 
 36 H82     10.6370     6.8000    28.2610 H     1 Q101   0.0490 
 37 H81      9.2740     7.8890    27.9360 H     1 Q101   0.0490 
 38 H73     12.8710     8.0570    26.4420 H     1 Q101   0.0490 
 39 H72     12.2470     6.3850    26.6160 H     1 Q101   0.0490 
 40 H71     12.1620     7.2280    25.0430 H     1 Q101   0.0490 
 41 H6       1.9670     9.3290    18.9330 H     1 Q101   0.1940 
 42 H5       0.9350    10.6280    16.8340 H     1 Q101   0.1560 
 43 H3       1.6460    11.8340    14.7100 H     1 Q101   0.1600 
 44 H26      7.7380     8.4400    26.1570 H     1 Q101   0.1600 
 45 H24     10.7270     9.7080    23.3280 H     1 Q101   0.1630 
 46 H21      9.0290     9.8270    21.5860 H     1 Q101   0.1530 
 47 H2       3.7460    12.5270    13.3490 H     1 Q101   0.1720 
 48 H12      3.6910     9.3260    20.7840 H     1 Q101   0.0910 
 49 H1       4.8700    11.9810    20.2410 H     1 Q101   0.4670 
@<TRIPOS>BOND
  1   1   2  am  
  2   1   9  1   
  3   1  49  1   
  4   2  21  2   
  5   2  29  1   
  6   2  30  2   
  7   3  11  1   
  8   3  12  1   
  9   3  19  am  
 10   4   7  1   
 11   4   8  1   
 12   4  18  am  
 13   5  19  2   
 14   6  18  2   
 15   7  38  1   
 16   7  39  1   
 17   7  40  1   
 18   8  35  1   
 19   8  36  1   
 20   8  37  1   
 21   9  10  1   
 22   9  19  1   
 23   9  48  1   
 24  10  11  1   
 25  10  33  1   
 26  10  34  1   
 27  11  31  1   
 28  11  32  1   
 29  12  13  ar  
 30  12  14  ar  
 31  13  15  ar  
 32  13  46  1   
 33  14  16  ar  
 34  14  20  1   
 35  15  17  ar  
 36  15  45  1   
 37  16  17  ar  
 38  16  44  1   
 39  17  18  1   
 40  22  23  1   
 41  23  24  2   
 42  23  25  1   
 43  24  26  1   
 44  24  47  1   
 45  25  27  1   
 46  26  27  2   
 47  26  43  1   
 48  27  28  1   
 49  28  29  2   
 50  28  42  1   
 51  29  41  1   
@<TRIPOS>SUBSTRUCTURE
  1 Q101   3 GROUP 4 **** **** 0

# MOE 2011.10 (io_trps.svl 2011.10)

@<TRIPOS>MOLECULE
FXA101_108
49 51 1 0 0 
SMALL
USER_CHARGES


@<TRIPOS>ATOM
  1 N1       5.7700     6.2740    19.6480 N.am  1 Q101  -0.8960 
  2 S1       6.1560     7.7470    20.1860 S.o2  1 Q101   1.3220 
  3 N2       6.8330     3.3370    18.1950 N.am  1 Q101  -0.3970 
  4 N3       6.0500     0.1260    12.5810 N.am  1 Q101  -0.4840 
  5 O3       6.6360     5.3240    17.0440 O.2   1 Q101  -0.6040 
  6 O4       6.3720    -1.4860    14.0780 O.2   1 Q101  -0.6060 
  7 C7       6.2350    -0.8840    11.5270 C.3   1 Q101   0.0840 
  8 C8       5.6040     1.4690    12.1750 C.3   1 Q101   0.0840 
  9 C12      6.8060     5.2820    19.4830 C.3   1 Q101   0.1690 
 10 C13      6.6540     4.0740    20.4140 C.3   1 Q101  -0.1080 
 11 C14      7.0340     2.8700    19.5590 C.3   1 Q101   0.1020 
 12 C15      6.7190     2.4410    17.0850 C.ar  1 Q101   0.0330 
 13 C21      5.4820     1.9840    16.6530 C.ar  1 Q101  -0.1060 
 14 C22      7.8490     1.9800    16.4260 C.ar  1 Q101   0.1210 
 15 C24      5.3710     1.1070    15.5940 C.ar  1 Q101  -0.0920 
 16 C26      7.7770     1.0990    15.3600 C.ar  1 Q101  -0.1400 
 17 C27      6.5160     0.6690    14.9450 C.ar  1 Q101  -0.1150 
 18 C28      6.3050    -0.2940    13.8240 C.2   1 Q101   0.6760 
 19 C50      6.7450     4.6860    18.0810 C.2   1 Q101   0.6950 
 20 F1       9.0500     2.4110    16.8460 F     1 Q101  -0.1400 
 21 O1       4.9020     8.4290    20.2760 O.2   1 Q101  -0.5930 
 22 CL1      9.5200     7.8410    27.3960 Cl    1 Q101  -0.0550 
 23 C1       9.1650     8.4020    25.7970 C.2   1 Q101   0.0330 
 24 C2       9.6370     9.5270    25.2070 C.2   1 Q101  -0.1460 
 25 S2       8.1140     7.4800    24.7960 S.3   1 Q101   0.0240 
 26 C3       9.1370     9.6640    23.9090 C.2   1 Q101  -0.1130 
 27 C4       8.2840     8.6380    23.5210 C.2   1 Q101  -0.0920 
 28 C5       7.6320     8.5610    22.2080 C.2   1 Q101   0.0810 
 29 C6       6.8350     7.5840    21.7780 C.2   1 Q101  -0.4200 
 30 O2       7.1680     8.1650    19.2580 O.2   1 Q101  -0.5930 
 31 H142     6.4070     1.9980    19.7680 H     1 Q101   0.0600 
 32 H141     8.0890     2.6090    19.6890 H     1 Q101   0.0600 
 33 H132     7.2710     4.1600    21.3120 H     1 Q101   0.0720 
 34 H131     5.6110     3.9780    20.7400 H     1 Q101   0.0720 
 35 H83      6.4670     2.0420    11.8410 H     1 Q101   0.0490 
 36 H82      4.8730     1.3740    11.3680 H     1 Q101   0.0490 
 37 H81      5.1300     1.9530    13.0250 H     1 Q101   0.0490 
 38 H73      5.5100    -1.6880    11.6850 H     1 Q101   0.0490 
 39 H72      6.0960    -0.4390    10.5380 H     1 Q101   0.0490 
 40 H71      7.2420    -1.3100    11.5980 H     1 Q101   0.0490 
 41 H6       6.5930     6.6960    22.3440 H     1 Q101   0.1940 
 42 H5       7.8100     9.4350    21.5820 H     1 Q101   0.1560 
 43 H3       9.4000    10.4880    23.2530 H     1 Q101   0.1600 
 44 H26      8.6800     0.7670    14.8650 H     1 Q101   0.1600 
 45 H24      4.3960     0.7400    15.3020 H     1 Q101   0.1630 
 46 H21      4.5750     2.3060    17.1590 H     1 Q101   0.1530 
 47 H2      10.3180    10.2280    25.6680 H     1 Q101   0.1720 
 48 H12      7.8130     5.6980    19.6060 H     1 Q101   0.0910 
 49 H1       4.9700     6.2150    19.0120 H     1 Q101   0.4670 
@<TRIPOS>BOND
  1   1   2  am  
  2   1   9  1   
  3   1  49  1   
  4   2  21  2   
  5   2  29  1   
  6   2  30  2   
  7   3  11  1   
  8   3  12  1   
  9   3  19  am  
 10   4   7  1   
 11   4   8  1   
 12   4  18  am  
 13   5  19  2   
 14   6  18  2   
 15   7  38  1   
 16   7  39  1   
 17   7  40  1   
 18   8  35  1   
 19   8  36  1   
 20   8  37  1   
 21   9  10  1   
 22   9  19  1   
 23   9  48  1   
 24  10  11  1   
 25  10  33  1   
 26  10  34  1   
 27  11  31  1   
 28  11  32  1   
 29  12  13  ar  
 30  12  14  ar  
 31  13  15  ar  
 32  13  46  1   
 33  14  16  ar  
 34  14  20  1   
 35  15  17  ar  
 36  15  45  1   
 37  16  17  ar  
 38  16  44  1   
 39  17  18  1   
 40  22  23  1   
 41  23  24  2   
 42  23  25  1   
 43  24  26  1   
 44  24  47  1   
 45  25  27  1   
 46  26  27  2   
 47  26  43  1   
 48  27  28  1   
 49  28  29  2   
 50  28  42  1   
 51  29  41  1   
@<TRIPOS>SUBSTRUCTURE
  1 Q101  19 GROUP 4 **** **** 0

# MOE 2011.10 (io_trps.svl 2011.10)

@<TRIPOS>MOLECULE
FXA101_109
49 51 1 0 0 
SMALL
USER_CHARGES


@<TRIPOS>ATOM
  1 N1       4.9220    13.6160    18.6290 N.am  1 Q101  -0.8960 
  2 S1       5.4430    12.0970    18.4630 S.o2  1 Q101   1.3220 
  3 N2       2.8970    16.1670    17.5050 N.am  1 Q101  -0.3970 
  4 N3       1.6690    22.3940    15.9680 N.am  1 Q101  -0.4840 
  5 O3       4.8860    15.5860    16.4960 O.2   1 Q101  -0.6040 
  6 O4       3.4680    21.8650    14.7770 O.2   1 Q101  -0.6060 
  7 C7       0.4220    22.3160    15.1910 C.3   1 Q101   0.0840 
  8 C8       1.7380    23.3800    17.0600 C.3   1 Q101   0.0840 
  9 C12      3.7060    14.0290    17.9650 C.3   1 Q101   0.1690 
 10 C13      2.5550    14.3350    18.9290 C.3   1 Q101  -0.1080 
 11 C14      1.8700    15.5640    18.3420 C.3   1 Q101   0.1020 
 12 C15      2.8200    17.5220    17.0510 C.ar  1 Q101   0.0330 
 13 C21      2.3420    17.8300    15.7850 C.ar  1 Q101  -0.1060 
 14 C22      3.2480    18.5660    17.8570 C.ar  1 Q101   0.1210 
 15 C24      2.2820    19.1350    15.3390 C.ar  1 Q101  -0.0920 
 16 C26      3.2040    19.8870    17.4440 C.ar  1 Q101  -0.1400 
 17 C27      2.7080    20.1620    16.1690 C.ar  1 Q101  -0.1150 
 18 C28      2.6260    21.5390    15.5980 C.2   1 Q101   0.6760 
 19 C50      3.9330    15.3390    17.2210 C.2   1 Q101   0.6950 
 20 F1       3.7200    18.2720    19.0800 F     1 Q101  -0.1400 
 21 O1       6.2870    12.1380    17.3090 O.2   1 Q101  -0.5930 
 22 CL1      9.1870     9.3790    24.9290 Cl    1 Q101  -0.0550 
 23 C1       7.8360     9.7760    23.9210 C.2   1 Q101   0.0330 
 24 C2       6.5270     9.5580    24.1940 C.2   1 Q101  -0.1460 
 25 S2       8.1130    10.5330    22.4020 S.3   1 Q101   0.0240 
 26 C3       5.7120    10.0040    23.1510 C.2   1 Q101  -0.1130 
 27 C4       6.4110    10.5620    22.0870 C.2   1 Q101  -0.0920 
 28 C5       5.7780    11.0980    20.8760 C.2   1 Q101   0.0810 
 29 C6       6.3980    11.6940    19.8580 C.2   1 Q101  -0.4200 
 30 O2       4.2200    11.3440    18.4680 O.2   1 Q101  -0.5930 
 31 H142     1.5360    16.2630    19.1140 H     1 Q101   0.0600 
 32 H141     1.0230    15.2800    17.7070 H     1 Q101   0.0600 
 33 H132     1.8710    13.4900    19.0440 H     1 Q101   0.0720 
 34 H131     2.9500    14.5770    19.9240 H     1 Q101   0.0720 
 35 H83      1.9900    24.3520    16.6440 H     1 Q101   0.0490 
 36 H82      0.7690    23.4200    17.5660 H     1 Q101   0.0490 
 37 H81      2.4950    23.0620    17.7730 H     1 Q101   0.0490 
 38 H73     -0.0280    21.3330    15.3550 H     1 Q101   0.0490 
 39 H72     -0.2710    23.1040    15.4950 H     1 Q101   0.0490 
 40 H71      0.6470    22.4180    14.1240 H     1 Q101   0.0490 
 41 H6       7.4470    11.9550    19.8470 H     1 Q101   0.1940 
 42 H5       4.7040    10.9210    20.8310 H     1 Q101   0.1560 
 43 H3       4.6280     9.9400    23.1710 H     1 Q101   0.1600 
 44 H26      3.5400    20.6760    18.1030 H     1 Q101   0.1600 
 45 H24      1.9390    19.3420    14.3340 H     1 Q101   0.1630 
 46 H21      2.0180    17.0370    15.1160 H     1 Q101   0.1530 
 47 H2       6.1510     9.1060    25.1020 H     1 Q101   0.1720 
 48 H12      3.3610    13.2990    17.2240 H     1 Q101   0.0910 
 49 H1       5.6390    14.3340    18.7640 H     1 Q101   0.4670 
@<TRIPOS>BOND
  1   1   2  am  
  2   1   9  1   
  3   1  49  1   
  4   2  21  2   
  5   2  29  1   
  6   2  30  2   
  7   3  11  1   
  8   3  12  1   
  9   3  19  am  
 10   4   7  1   
 11   4   8  1   
 12   4  18  am  
 13   5  19  2   
 14   6  18  2   
 15   7  38  1   
 16   7  39  1   
 17   7  40  1   
 18   8  35  1   
 19   8  36  1   
 20   8  37  1   
 21   9  10  1   
 22   9  19  1   
 23   9  48  1   
 24  10  11  1   
 25  10  33  1   
 26  10  34  1   
 27  11  31  1   
 28  11  32  1   
 29  12  13  ar  
 30  12  14  ar  
 31  13  15  ar  
 32  13  46  1   
 33  14  16  ar  
 34  14  20  1   
 35  15  17  ar  
 36  15  45  1   
 37  16  17  ar  
 38  16  44  1   
 39  17  18  1   
 40  22  23  1   
 41  23  24  2   
 42  23  25  1   
 43  24  26  1   
 44  24  47  1   
 45  25  27  1   
 46  26  27  2   
 47  26  43  1   
 48  27  28  1   
 49  28  29  2   
 50  28  42  1   
 51  29  41  1   
@<TRIPOS>SUBSTRUCTURE
  1 Q101  19 GROUP 4 **** **** 0

# MOE 2011.10 (io_trps.svl 2011.10)

@<TRIPOS>MOLECULE
FXA101_110
49 51 1 0 0 
SMALL
USER_CHARGES


@<TRIPOS>ATOM
  1 N1       6.7870     4.0450    15.7270 N.am  1 Q101  -0.8960 
  2 S1       5.8870     3.2370    14.6570 S.o2  1 Q101   1.3220 
  3 N2       7.4040     4.8280    19.0250 N.am  1 Q101  -0.3970 
  4 N3       7.7760     8.7610    24.2450 N.am  1 Q101  -0.4840 
  5 O3       5.6390     5.6950    17.8220 O.2   1 Q101  -0.6040 
  6 O4       8.2720    10.0440    22.4990 O.2   1 Q101  -0.6060 
  7 C7       6.4220     9.0340    24.7510 C.3   1 Q101   0.0840 
  8 C8       8.7920     8.3070    25.2090 C.3   1 Q101   0.0840 
  9 C12      6.7710     3.6470    17.1160 C.3   1 Q101   0.1690 
 10 C13      8.1120     3.0970    17.6110 C.3   1 Q101  -0.1080 
 11 C14      8.2700     3.6580    19.0200 C.3   1 Q101   0.1020 
 12 C15      7.5130     5.8610    20.0090 C.ar  1 Q101   0.0330 
 13 C21      8.2990     6.9830    19.7910 C.ar  1 Q101  -0.1060 
 14 C22      6.8550     5.7530    21.2250 C.ar  1 Q101   0.1210 
 15 C24      8.4190     7.9720    20.7460 C.ar  1 Q101  -0.0920 
 16 C26      6.9520     6.7250    22.2090 C.ar  1 Q101  -0.1400 
 17 C27      7.7430     7.8460    21.9500 C.ar  1 Q101  -0.1150 
 18 C28      7.9450     8.9510    22.9330 C.2   1 Q101   0.6760 
 19 C50      6.5080     4.8560    18.0060 C.2   1 Q101   0.6950 
 20 F1       6.1010     4.6640    21.4460 F     1 Q101  -0.1400 
 21 O1       6.0970     3.9320    13.4240 O.2   1 Q101  -0.5930 
 22 CL1      2.9100     2.4270     9.1980 Cl    1 Q101  -0.0550 
 23 C1       3.5540     1.8820    10.7100 C.2   1 Q101   0.0330 
 24 C2       2.8490     1.4880    11.7980 C.2   1 Q101  -0.1460 
 25 S2       5.2590     1.8030    10.9180 S.3   1 Q101   0.0240 
 26 C3       3.6990     1.1140    12.8420 C.2   1 Q101  -0.1130 
 27 C4       5.0510     1.2280    12.5380 C.2   1 Q101  -0.0920 
 28 C5       6.1350     0.8990    13.4710 C.2   1 Q101   0.0810 
 29 C6       6.5210     1.6240    14.5210 C.2   1 Q101  -0.4200 
 30 O2       4.5980     3.2100    15.2880 O.2   1 Q101  -0.5930 
 31 H142     9.3040     3.9380    19.2420 H     1 Q101   0.0600 
 32 H141     7.9070     2.9500    19.7720 H     1 Q101   0.0600 
 33 H132     8.1480     2.0030    17.5910 H     1 Q101   0.0720 
 34 H131     8.9290     3.4640    16.9770 H     1 Q101   0.0720 
 35 H83      9.2060     9.1730    25.7210 H     1 Q101   0.0490 
 36 H82      8.3240     7.6270    25.9270 H     1 Q101   0.0490 
 37 H81      9.5710     7.7710    24.6730 H     1 Q101   0.0490 
 38 H73      5.7310     8.3210    24.2920 H     1 Q101   0.0490 
 39 H72      6.3920     8.9430    25.8390 H     1 Q101   0.0490 
 40 H71      6.1180    10.0450    24.4600 H     1 Q101   0.0490 
 41 H6       7.1870     1.2740    15.2960 H     1 Q101   0.1940 
 42 H5       6.6040    -0.0640    13.2720 H     1 Q101   0.1560 
 43 H3       3.3420     0.7510    13.8010 H     1 Q101   0.1600 
 44 H26      6.4180     6.6110    23.1420 H     1 Q101   0.1600 
 45 H24      9.0670     8.8180    20.5620 H     1 Q101   0.1630 
 46 H21      8.8480     7.0920    18.8580 H     1 Q101   0.1530 
 47 H2       1.7700     1.4550    11.8580 H     1 Q101   0.1720 
 48 H12      5.9850     2.9150    17.3370 H     1 Q101   0.0910 
 49 H1       6.9450     5.0380    15.5340 H     1 Q101   0.4670 
@<TRIPOS>BOND
  1   1   2  am  
  2   1   9  1   
  3   1  49  1   
  4   2  21  2   
  5   2  29  1   
  6   2  30  2   
  7   3  11  1   
  8   3  12  1   
  9   3  19  am  
 10   4   7  1   
 11   4   8  1   
 12   4  18  am  
 13   5  19  2   
 14   6  18  2   
 15   7  38  1   
 16   7  39  1   
 17   7  40  1   
 18   8  35  1   
 19   8  36  1   
 20   8  37  1   
 21   9  10  1   
 22   9  19  1   
 23   9  48  1   
 24  10  11  1   
 25  10  33  1   
 26  10  34  1   
 27  11  31  1   
 28  11  32  1   
 29  12  13  ar  
 30  12  14  ar  
 31  13  15  ar  
 32  13  46  1   
 33  14  16  ar  
 34  14  20  1   
 35  15  17  ar  
 36  15  45  1   
 37  16  17  ar  
 38  16  44  1   
 39  17  18  1   
 40  22  23  1   
 41  23  24  2   
 42  23  25  1   
 43  24  26  1   
 44  24  47  1   
 45  25  27  1   
 46  26  27  2   
 47  26  43  1   
 48  27  28  1   
 49  28  29  2   
 50  28  42  1   
 51  29  41  1   
@<TRIPOS>SUBSTRUCTURE
  1 Q101  19 GROUP 4 **** **** 0

# MOE 2011.10 (io_trps.svl 2011.10)

@<TRIPOS>MOLECULE
FXA101_111
49 51 1 0 0 
SMALL
USER_CHARGES


@<TRIPOS>ATOM
  1 N1       5.6410    -0.8950    13.8190 N.am  1 Q101  -0.8960 
  2 S1       5.6570     0.2800    12.7110 S.o2  1 Q101   1.3220 
  3 N2       3.8250    -3.2330    15.5810 N.am  1 Q101  -0.3970 
  4 N3       2.0880    -6.5520    20.8790 N.am  1 Q101  -0.4840 
  5 O3       3.7710    -0.9750    16.0380 O.2   1 Q101  -0.6040 
  6 O4       2.2130    -4.4650    21.6330 O.2   1 Q101  -0.6060 
  7 C7       1.8520    -7.3280    19.6520 C.3   1 Q101   0.0840 
  8 C8       2.0850    -7.2750    22.1620 C.3   1 Q101   0.0840 
  9 C12      4.5260    -1.8120    13.8690 C.3   1 Q101   0.1690 
 10 C13      4.8980    -3.2510    13.4960 C.3   1 Q101  -0.1080 
 11 C14      4.1070    -4.1230    14.4650 C.3   1 Q101   0.1020 
 12 C15      3.4250    -3.7160    16.8670 C.ar  1 Q101   0.0330 
 13 C21      4.3500    -4.2310    17.7630 C.ar  1 Q101  -0.1060 
 14 C22      2.0900    -3.7080    17.2430 C.ar  1 Q101   0.1210 
 15 C24      3.9640    -4.7130    18.9970 C.ar  1 Q101  -0.0920 
 16 C26      1.6640    -4.1840    18.4730 C.ar  1 Q101  -0.1400 
 17 C27      2.6240    -4.6850    19.3530 C.ar  1 Q101  -0.1150 
 18 C28      2.2930    -5.2440    20.6970 C.2   1 Q101   0.6760 
 19 C50      3.9970    -1.9180    15.2950 C.2   1 Q101   0.6950 
 20 F1       1.1870    -3.2200    16.3760 F     1 Q101  -0.1400 
 21 O1       5.9740    -0.3930    11.4890 O.2   1 Q101  -0.5930 
 22 CL1      7.6810     3.6270     8.0420 Cl    1 Q101  -0.0550 
 23 C1       6.3590     2.8390     8.8340 C.2   1 Q101   0.0330 
 24 C2       5.5070     1.9360     8.2900 C.2   1 Q101  -0.1460 
 25 S2       6.0390     3.1900    10.4870 S.3   1 Q101   0.0240 
 26 C3       4.5580     1.5120     9.2240 C.2   1 Q101  -0.1130 
 27 C4       4.6960     2.0980    10.4760 C.2   1 Q101  -0.0920 
 28 C5       3.8180     1.8150    11.6180 C.2   1 Q101   0.0810 
 29 C6       4.0560     0.9460    12.6000 C.2   1 Q101  -0.4200 
 30 O2       6.5540     1.2420    13.2870 O.2   1 Q101  -0.5930 
 31 H142     4.6770    -4.9960    14.7980 H     1 Q101   0.0600 
 32 H141     3.1580    -4.4460    14.0240 H     1 Q101   0.0600 
 33 H132     4.6750    -3.4810    12.4500 H     1 Q101   0.0720 
 34 H131     5.9720    -3.4150    13.6470 H     1 Q101   0.0720 
 35 H83      1.0570    -7.4020    22.4940 H     1 Q101   0.0490 
 36 H82      2.5640    -8.2490    22.0240 H     1 Q101   0.0490 
 37 H81      2.6540    -6.7020    22.8900 H     1 Q101   0.0490 
 38 H73      2.7540    -7.2880    19.0370 H     1 Q101   0.0490 
 39 H72      1.6040    -8.3650    19.8940 H     1 Q101   0.0490 
 40 H71      1.0290    -6.8790    19.0860 H     1 Q101   0.0490 
 41 H6       3.3270     0.6390    13.3370 H     1 Q101   0.1940 
 42 H5       2.9250     2.4370    11.6460 H     1 Q101   0.1560 
 43 H3       3.7900     0.7770     9.0010 H     1 Q101   0.1600 
 44 H26      0.6140    -4.1550    18.7350 H     1 Q101   0.1600 
 45 H24      4.7040    -5.1420    19.6600 H     1 Q101   0.1630 
 46 H21      5.4030    -4.2740    17.4940 H     1 Q101   0.1530 
 47 H2       5.5530     1.5790     7.2710 H     1 Q101   0.1720 
 48 H12      3.6860    -1.4900    13.2430 H     1 Q101   0.0910 
 49 H1       6.1120    -0.6940    14.7050 H     1 Q101   0.4670 
@<TRIPOS>BOND
  1   1   2  am  
  2   1   9  1   
  3   1  49  1   
  4   2  21  2   
  5   2  29  1   
  6   2  30  2   
  7   3  11  1   
  8   3  12  1   
  9   3  19  am  
 10   4   7  1   
 11   4   8  1   
 12   4  18  am  
 13   5  19  2   
 14   6  18  2   
 15   7  38  1   
 16   7  39  1   
 17   7  40  1   
 18   8  35  1   
 19   8  36  1   
 20   8  37  1   
 21   9  10  1   
 22   9  19  1   
 23   9  48  1   
 24  10  11  1   
 25  10  33  1   
 26  10  34  1   
 27  11  31  1   
 28  11  32  1   
 29  12  13  ar  
 30  12  14  ar  
 31  13  15  ar  
 32  13  46  1   
 33  14  16  ar  
 34  14  20  1   
 35  15  17  ar  
 36  15  45  1   
 37  16  17  ar  
 38  16  44  1   
 39  17  18  1   
 40  22  23  1   
 41  23  24  2   
 42  23  25  1   
 43  24  26  1   
 44  24  47  1   
 45  25  27  1   
 46  26  27  2   
 47  26  43  1   
 48  27  28  1   
 49  28  29  2   
 50  28  42  1   
 51  29  41  1   
@<TRIPOS>SUBSTRUCTURE
  1 Q101  19 GROUP 4 **** **** 0

# MOE 2011.10 (io_trps.svl 2011.10)

@<TRIPOS>MOLECULE
FXA101_112
49 51 1 0 0 
SMALL
USER_CHARGES


@<TRIPOS>ATOM
  1 N1       5.4170     8.9080    22.4320 N.am  1 Q101  -0.8960 
  2 S1       6.9040     9.5340    22.4980 S.o2  1 Q101   1.3220 
  3 N2       3.2990     6.1910    22.4130 N.am  1 Q101  -0.3970 
  4 N3      -2.1540     2.8450    21.3250 N.am  1 Q101  -0.4840 
  5 O3       3.7390     7.4720    20.5480 O.2   1 Q101  -0.6040 
  6 O4      -2.5320     4.7530    20.2500 O.2   1 Q101  -0.6060 
  7 C7      -3.2140     2.8320    22.3440 C.3   1 Q101   0.0840 
  8 C8      -1.6260     1.5490    20.8650 C.3   1 Q101   0.0840 
  9 C12      5.2460     7.4740    22.4730 C.3   1 Q101   0.1690 
 10 C13      4.9750     6.9280    23.8780 C.3   1 Q101  -0.1080 
 11 C14      3.9240     5.8420    23.6800 C.3   1 Q101   0.1020 
 12 C15      2.0300     5.6660    22.0110 C.ar  1 Q101   0.0330 
 13 C21      0.9160     5.7680    22.8320 C.ar  1 Q101  -0.1060 
 14 C22      1.8860     5.0120    20.7960 C.ar  1 Q101   0.1210 
 15 C24     -0.3050     5.2480    22.4530 C.ar  1 Q101  -0.0920 
 16 C26      0.6770     4.4760    20.3830 C.ar  1 Q101  -0.1400 
 17 C27     -0.4250     4.6070    21.2290 C.ar  1 Q101  -0.1150 
 18 C28     -1.7760     4.0570    20.9090 C.2   1 Q101   0.6760 
 19 C50      4.0170     7.0690    21.6680 C.2   1 Q101   0.6950 
 20 F1       2.9630     4.9010    20.0020 F     1 Q101  -0.1400 
 21 O1       6.6980    10.8890    22.9090 O.2   1 Q101  -0.5930 
 22 CL1     13.4480     7.2750    26.8680 Cl    1 Q101  -0.0550 
 23 C1      11.8910     7.6840    26.2310 C.2   1 Q101   0.0330 
 24 C2      10.7080     7.6490    26.8910 C.2   1 Q101  -0.1460 
 25 S2      11.7600     8.1990    24.5960 S.3   1 Q101   0.0240 
 26 C3       9.6550     8.0420    26.0610 C.2   1 Q101  -0.1130 
 27 C4      10.0470     8.3740    24.7700 C.2   1 Q101  -0.0920 
 28 C5       9.1240     8.8130    23.7160 C.2   1 Q101   0.0810 
 29 C6       7.7970     8.6920    23.7280 C.2   1 Q101  -0.4200 
 30 O2       7.4340     9.2210    21.2010 O.2   1 Q101  -0.5930 
 31 H142     3.1840     5.8260    24.4870 H     1 Q101   0.0600 
 32 H141     4.3870     4.8550    23.5830 H     1 Q101   0.0600 
 33 H132     5.8810     6.5500    24.3610 H     1 Q101   0.0720 
 34 H131     4.5670     7.7200    24.5190 H     1 Q101   0.0720 
 35 H83     -0.8790     1.2000    21.5730 H     1 Q101   0.0490 
 36 H82     -2.4500     0.8340    20.7950 H     1 Q101   0.0490 
 37 H81     -1.1880     1.6790    19.8790 H     1 Q101   0.0490 
 38 H73     -4.1230     3.2520    21.9040 H     1 Q101   0.0490 
 39 H72     -3.4000     1.8140    22.6940 H     1 Q101   0.0490 
 40 H71     -2.9180     3.4620    23.1900 H     1 Q101   0.0490 
 41 H6       7.2410     8.0970    24.4390 H     1 Q101   0.1940 
 42 H5       9.6170     9.3250    22.8910 H     1 Q101   0.1560 
 43 H3       8.6230     8.1010    26.3940 H     1 Q101   0.1600 
 44 H26      0.6000     3.9800    19.4250 H     1 Q101   0.1600 
 45 H24     -1.1460     5.3110    23.1300 H     1 Q101   0.1630 
 46 H21      0.9960     6.2540    23.8010 H     1 Q101   0.1530 
 47 H2      10.5860     7.3640    27.9270 H     1 Q101   0.1720 
 48 H12      6.0980     6.9340    22.0420 H     1 Q101   0.0910 
 49 H1       4.7200     9.4400    21.9060 H     1 Q101   0.4670 
@<TRIPOS>BOND
  1   1   2  am  
  2   1   9  1   
  3   1  49  1   
  4   2  21  2   
  5   2  29  1   
  6   2  30  2   
  7   3  11  1   
  8   3  12  1   
  9   3  19  am  
 10   4   7  1   
 11   4   8  1   
 12   4  18  am  
 13   5  19  2   
 14   6  18  2   
 15   7  38  1   
 16   7  39  1   
 17   7  40  1   
 18   8  35  1   
 19   8  36  1   
 20   8  37  1   
 21   9  10  1   
 22   9  19  1   
 23   9  48  1   
 24  10  11  1   
 25  10  33  1   
 26  10  34  1   
 27  11  31  1   
 28  11  32  1   
 29  12  13  ar  
 30  12  14  ar  
 31  13  15  ar  
 32  13  46  1   
 33  14  16  ar  
 34  14  20  1   
 35  15  17  ar  
 36  15  45  1   
 37  16  17  ar  
 38  16  44  1   
 39  17  18  1   
 40  22  23  1   
 41  23  24  2   
 42  23  25  1   
 43  24  26  1   
 44  24  47  1   
 45  25  27  1   
 46  26  27  2   
 47  26  43  1   
 48  27  28  1   
 49  28  29  2   
 50  28  42  1   
 51  29  41  1   
@<TRIPOS>SUBSTRUCTURE
  1 Q101   3 GROUP 4 **** **** 0

# MOE 2011.10 (io_trps.svl 2011.10)

@<TRIPOS>MOLECULE
FXA101_113
49 51 1 0 0 
SMALL
USER_CHARGES


@<TRIPOS>ATOM
  1 N1       5.1220     8.9860    21.3140 N.am  1 Q101  -0.8960 
  2 S1       5.3380     9.7600    22.7140 S.o2  1 Q101   1.3220 
  3 N2       5.2670     5.7640    20.1040 N.am  1 Q101  -0.3970 
  4 N3       8.5760     1.3160    16.6140 N.am  1 Q101  -0.4840 
  5 O3       6.8150     6.6410    21.5680 O.2   1 Q101  -0.6040 
  6 O4       9.2300     1.0360    18.7190 O.2   1 Q101  -0.6060 
  7 C7       7.2810     1.3970    15.9190 C.3   1 Q101   0.0840 
  8 C8       9.7500     0.8970    15.8320 C.3   1 Q101   0.0840 
  9 C12      4.5980     7.6400    21.3180 C.3   1 Q101   0.1690 
 10 C13      3.5700     7.3790    20.2120 C.3   1 Q101  -0.1080 
 11 C14      3.8800     5.9720    19.7130 C.3   1 Q101   0.1020 
 12 C15      6.0800     4.7370    19.5290 C.ar  1 Q101   0.0330 
 13 C21      6.2020     3.4930    20.1320 C.ar  1 Q101  -0.1060 
 14 C22      6.7960     4.9680    18.3630 C.ar  1 Q101   0.1210 
 15 C24      7.0000     2.5070    19.5880 C.ar  1 Q101  -0.0920 
 16 C26      7.6070     4.0030    17.7880 C.ar  1 Q101  -0.1400 
 17 C27      7.6960     2.7600    18.4150 C.ar  1 Q101  -0.1150 
 18 C28      8.5500     1.6440    17.9080 C.2   1 Q101   0.6760 
 19 C50      5.7140     6.6410    21.0370 C.2   1 Q101   0.6950 
 20 F1       6.6900     6.1730    17.7810 F     1 Q101  -0.1400 
 21 O1       4.0740    10.3760    22.9750 O.2   1 Q101  -0.5930 
 22 CL1     -0.6280     9.4190    24.1050 Cl    1 Q101  -0.0550 
 23 C1       1.0200     9.4330    24.6370 C.2   1 Q101   0.0330 
 24 C2       1.5690    10.2600    25.5600 C.2   1 Q101  -0.1460 
 25 S2       2.1290     8.3020    23.9700 S.3   1 Q101   0.0240 
 26 C3       2.9280     9.9880    25.7380 C.2   1 Q101  -0.1130 
 27 C4       3.4040     8.9500    24.9450 C.2   1 Q101  -0.0920 
 28 C5       4.7950     8.4820    24.9510 C.2   1 Q101   0.0810 
 29 C6       5.6650     8.5780    23.9460 C.2   1 Q101  -0.4200 
 30 O2       6.5120    10.5470    22.4600 O.2   1 Q101  -0.5930 
 31 H142     3.7620     5.8800    18.6290 H     1 Q101   0.0600 
 32 H141     3.2580     5.2260    20.2190 H     1 Q101   0.0600 
 33 H132     2.5400     7.4790    20.5680 H     1 Q101   0.0720 
 34 H131     3.7060     8.0960    19.3930 H     1 Q101   0.0720 
 35 H83      9.7660    -0.1890    15.7700 H     1 Q101   0.0490 
 36 H82      9.6880     1.3340    14.8310 H     1 Q101   0.0490 
 37 H81     10.6480     1.2650    16.3220 H     1 Q101   0.0490 
 38 H73      6.9530     2.4400    15.9170 H     1 Q101   0.0490 
 39 H72      7.3700     1.0280    14.8940 H     1 Q101   0.0490 
 40 H71      6.5360     0.8030    16.4590 H     1 Q101   0.0490 
 41 H6       6.5620     7.9840    23.8520 H     1 Q101   0.1940 
 42 H5       5.1120     8.0680    25.9080 H     1 Q101   0.1560 
 43 H3       3.5560    10.5230    26.4420 H     1 Q101   0.1600 
 44 H26      8.1440     4.2160    16.8730 H     1 Q101   0.1600 
 45 H24      7.1030     1.5590    20.0990 H     1 Q101   0.1630 
 46 H21      5.6740     3.2820    21.0590 H     1 Q101   0.1530 
 47 H2       1.0320    11.0280    26.0990 H     1 Q101   0.1720 
 48 H12      4.1580     7.3600    22.2820 H     1 Q101   0.0910 
 49 H1       5.7630     9.2280    20.5540 H     1 Q101   0.4670 
@<TRIPOS>BOND
  1   1   2  am  
  2   1   9  1   
  3   1  49  1   
  4   2  21  2   
  5   2  29  1   
  6   2  30  2   
  7   3  11  1   
  8   3  12  1   
  9   3  19  am  
 10   4   7  1   
 11   4   8  1   
 12   4  18  am  
 13   5  19  2   
 14   6  18  2   
 15   7  38  1   
 16   7  39  1   
 17   7  40  1   
 18   8  35  1   
 19   8  36  1   
 20   8  37  1   
 21   9  10  1   
 22   9  19  1   
 23   9  48  1   
 24  10  11  1   
 25  10  33  1   
 26  10  34  1   
 27  11  31  1   
 28  11  32  1   
 29  12  13  ar  
 30  12  14  ar  
 31  13  15  ar  
 32  13  46  1   
 33  14  16  ar  
 34  14  20  1   
 35  15  17  ar  
 36  15  45  1   
 37  16  17  ar  
 38  16  44  1   
 39  17  18  1   
 40  22  23  1   
 41  23  24  2   
 42  23  25  1   
 43  24  26  1   
 44  24  47  1   
 45  25  27  1   
 46  26  27  2   
 47  26  43  1   
 48  27  28  1   
 49  28  29  2   
 50  28  42  1   
 51  29  41  1   
@<TRIPOS>SUBSTRUCTURE
  1 Q101  19 GROUP 4 **** **** 0

# MOE 2011.10 (io_trps.svl 2011.10)

@<TRIPOS>MOLECULE
FXA101_114
49 51 1 0 0 
SMALL
USER_CHARGES


@<TRIPOS>ATOM
  1 N1       6.9090    10.0800    20.0590 N.am  1 Q101  -0.8960 
  2 S1       8.0020    10.1070    21.2480 S.o2  1 Q101   1.3220 
  3 N2       5.4980     8.5550    17.3110 N.am  1 Q101  -0.3970 
  4 N3       1.8050     8.6060    11.9430 N.am  1 Q101  -0.4840 
  5 O3       6.9650    10.3270    17.1670 O.2   1 Q101  -0.6040 
  6 O4       3.5250     9.9150    11.4240 O.2   1 Q101  -0.6060 
  7 C7       1.7450     8.0310    10.5900 C.3   1 Q101   0.0840 
  8 C8       0.6280     8.4420    12.8130 C.3   1 Q101   0.0840 
  9 C12      6.8460     8.9390    19.1760 C.3   1 Q101   0.1690 
 10 C13      5.7590     7.9280    19.5560 C.3   1 Q101  -0.1080 
 11 C14      5.1650     7.4740    18.2270 C.3   1 Q101   0.1020 
 12 C15      4.8360     8.7290    16.0550 C.ar  1 Q101   0.0330 
 13 C21      5.0470     7.8490    15.0020 C.ar  1 Q101  -0.1060 
 14 C22      3.9830     9.8020    15.8450 C.ar  1 Q101   0.1210 
 15 C24      4.4220     8.0250    13.7840 C.ar  1 Q101  -0.0920 
 16 C26      3.3390    10.0110    14.6360 C.ar  1 Q101  -0.1400 
 17 C27      3.5660     9.1010    13.6040 C.ar  1 Q101  -0.1150 
 18 C28      2.9490     9.2250    12.2500 C.2   1 Q101   0.6760 
 19 C50      6.4700     9.3850    17.7680 C.2   1 Q101   0.6950 
 20 F1       3.7830    10.6620    16.8570 F     1 Q101  -0.1400 
 21 O1       7.9910    11.4620    21.7060 O.2   1 Q101  -0.5930 
 22 CL1     11.2640     7.0520    27.4450 Cl    1 Q101  -0.0550 
 23 C1      10.5260     7.8270    26.0840 C.2   1 Q101   0.0330 
 24 C2      11.1490     8.2720    24.9660 C.2   1 Q101  -0.1460 
 25 S2       8.8260     8.0850    26.0820 S.3   1 Q101   0.0240 
 26 C3      10.2390     8.8480    24.0760 C.2   1 Q101  -0.1130 
 27 C4       8.9240     8.8360    24.5260 C.2   1 Q101  -0.0920 
 28 C5       7.7910     9.3840    23.7710 C.2   1 Q101   0.0810 
 29 C6       7.4440     9.0660    22.5240 C.2   1 Q101  -0.4200 
 30 O2       9.1620     9.5400    20.6210 O.2   1 Q101  -0.5930 
 31 H142     4.0820     7.3310    18.2830 H     1 Q101   0.0600 
 32 H141     5.6430     6.5540    17.8730 H     1 Q101   0.0600 
 33 H132     6.1530     7.0940    20.1450 H     1 Q101   0.0720 
 34 H131     4.9820     8.4170    20.1560 H     1 Q101   0.0720 
 35 H83     -0.1030     9.2100    12.5680 H     1 Q101   0.0490 
 36 H82      0.2040     7.4470    12.6550 H     1 Q101   0.0490 
 37 H81      0.9430     8.5310    13.8490 H     1 Q101   0.0490 
 38 H73      2.4970     7.2420    10.5150 H     1 Q101   0.0490 
 39 H72      0.7500     7.6260    10.3880 H     1 Q101   0.0490 
 40 H71      1.9820     8.8040     9.8510 H     1 Q101   0.0490 
 41 H6       6.8540     8.2030    22.2520 H     1 Q101   0.1940 
 42 H5       7.1770    10.0750    24.3480 H     1 Q101   0.1560 
 43 H3      10.5240     9.2550    23.1100 H     1 Q101   0.1600 
 44 H26      2.6740    10.8560    14.5120 H     1 Q101   0.1600 
 45 H24      4.6330     7.3430    12.9710 H     1 Q101   0.1630 
 46 H21      5.7260     7.0090    15.1220 H     1 Q101   0.1530 
 47 H2      12.2100     8.1900    24.7750 H     1 Q101   0.1720 
 48 H12      7.8050     8.4130    19.0950 H     1 Q101   0.0910 
 49 H1       6.6430    10.9850    19.6630 H     1 Q101   0.4670 
@<TRIPOS>BOND
  1   1   2  am  
  2   1   9  1   
  3   1  49  1   
  4   2  21  2   
  5   2  29  1   
  6   2  30  2   
  7   3  11  1   
  8   3  12  1   
  9   3  19  am  
 10   4   7  1   
 11   4   8  1   
 12   4  18  am  
 13   5  19  2   
 14   6  18  2   
 15   7  38  1   
 16   7  39  1   
 17   7  40  1   
 18   8  35  1   
 19   8  36  1   
 20   8  37  1   
 21   9  10  1   
 22   9  19  1   
 23   9  48  1   
 24  10  11  1   
 25  10  33  1   
 26  10  34  1   
 27  11  31  1   
 28  11  32  1   
 29  12  13  ar  
 30  12  14  ar  
 31  13  15  ar  
 32  13  46  1   
 33  14  16  ar  
 34  14  20  1   
 35  15  17  ar  
 36  15  45  1   
 37  16  17  ar  
 38  16  44  1   
 39  17  18  1   
 40  22  23  1   
 41  23  24  2   
 42  23  25  1   
 43  24  26  1   
 44  24  47  1   
 45  25  27  1   
 46  26  27  2   
 47  26  43  1   
 48  27  28  1   
 49  28  29  2   
 50  28  42  1   
 51  29  41  1   
@<TRIPOS>SUBSTRUCTURE
  1 Q101   9 GROUP 4 **** **** 0

# MOE 2011.10 (io_trps.svl 2011.10)

@<TRIPOS>MOLECULE
FXA101_115
49 51 1 0 0 
SMALL
USER_CHARGES


@<TRIPOS>ATOM
  1 N1       5.4140    11.8760    19.2740 N.am  1 Q101  -0.8960 
  2 S1       5.9810    10.8030    20.3400 S.o2  1 Q101   1.3220 
  3 N2       3.2530    11.8510    16.5920 N.am  1 Q101  -0.3970 
  4 N3       1.4510    10.9240    10.4040 N.am  1 Q101  -0.4840 
  5 O3       4.7300    10.1420    17.0490 O.2   1 Q101  -0.6040 
  6 O4       3.6170    10.4280    10.4020 O.2   1 Q101  -0.6060 
  7 C7       0.9560     9.6930     9.7690 C.3   1 Q101   0.0840 
  8 C8       0.6090    12.1290    10.3160 C.3   1 Q101   0.0840 
  9 C12      4.0650    11.7390    18.7760 C.3   1 Q101   0.1690 
 10 C13      3.3420    13.0770    18.5890 C.3   1 Q101  -0.1080 
 11 C14      2.5550    12.9190    17.2920 C.3   1 Q101   0.1020 
 12 C15      3.0880    11.6160    15.1900 C.ar  1 Q101   0.0330 
 13 C21      2.5770    10.4160    14.7160 C.ar  1 Q101  -0.1060 
 14 C22      3.4630    12.5760    14.2620 C.ar  1 Q101   0.1210 
 15 C24      2.4330    10.1820    13.3640 C.ar  1 Q101  -0.0920 
 16 C26      3.3340    12.3760    12.8960 C.ar  1 Q101  -0.1400 
 17 C27      2.8060    11.1620    12.4560 C.ar  1 Q101  -0.1150 
 18 C28      2.6350    10.8160    11.0140 C.2   1 Q101   0.6760 
 19 C50      4.0810    11.1220    17.3820 C.2   1 Q101   0.6950 
 20 F1       3.9680    13.7350    14.7140 F     1 Q101  -0.1400 
 21 O1       7.1780    11.4040    20.8420 O.2   1 Q101  -0.5930 
 22 CL1      9.0650     8.3580    25.9360 Cl    1 Q101  -0.0550 
 23 C1       8.0040     8.5270    24.5770 C.2   1 Q101   0.0330 
 24 C2       8.1960     8.0320    23.3310 C.2   1 Q101  -0.1460 
 25 S2       6.5340     9.3980    24.7620 S.3   1 Q101   0.0240 
 26 C3       7.1330     8.3650    22.4860 C.2   1 Q101  -0.1130 
 27 C4       6.1370     9.1140    23.1010 C.2   1 Q101  -0.0920 
 28 C5       4.9250     9.5860    22.4220 C.2   1 Q101   0.0810 
 29 C6       4.8280    10.6550    21.6310 C.2   1 Q101  -0.4200 
 30 O2       6.0210     9.5900    19.5720 O.2   1 Q101  -0.5930 
 31 H142     2.5490    13.8370    16.6960 H     1 Q101   0.0600 
 32 H141     1.5280    12.5970    17.4890 H     1 Q101   0.0600 
 33 H132     2.7010    13.3270    19.4390 H     1 Q101   0.0720 
 34 H131     4.0720    13.8890    18.4780 H     1 Q101   0.0720 
 35 H83      0.7790    12.6100     9.3560 H     1 Q101   0.0490 
 36 H82     -0.4400    11.8400    10.4180 H     1 Q101   0.0490 
 37 H81      0.8700    12.8000    11.1310 H     1 Q101   0.0490 
 38 H73      0.7810     8.9460    10.5490 H     1 Q101   0.0490 
 39 H72      0.0320     9.8880     9.2190 H     1 Q101   0.0490 
 40 H71      1.7150     9.3020     9.0830 H     1 Q101   0.0490 
 41 H6       4.0760    11.4250    21.7300 H     1 Q101   0.1940 
 42 H5       4.0610     8.9390    22.5710 H     1 Q101   0.1560 
 43 H3       7.0770     8.0550    21.4480 H     1 Q101   0.1600 
 44 H26      3.6300    13.1510    12.2020 H     1 Q101   0.1600 
 45 H24      2.0650     9.2230    13.0230 H     1 Q101   0.1630 
 46 H21      2.2930     9.6320    15.4130 H     1 Q101   0.1530 
 47 H2       9.0510     7.4470    23.0220 H     1 Q101   0.1720 
 48 H12      3.4460    11.0880    19.4030 H     1 Q101   0.0910 
 49 H1       6.0980    12.2980    18.6420 H     1 Q101   0.4670 
@<TRIPOS>BOND
  1   1   2  am  
  2   1   9  1   
  3   1  49  1   
  4   2  21  2   
  5   2  29  1   
  6   2  30  2   
  7   3  11  1   
  8   3  12  1   
  9   3  19  am  
 10   4   7  1   
 11   4   8  1   
 12   4  18  am  
 13   5  19  2   
 14   6  18  2   
 15   7  38  1   
 16   7  39  1   
 17   7  40  1   
 18   8  35  1   
 19   8  36  1   
 20   8  37  1   
 21   9  10  1   
 22   9  19  1   
 23   9  48  1   
 24  10  11  1   
 25  10  33  1   
 26  10  34  1   
 27  11  31  1   
 28  11  32  1   
 29  12  13  ar  
 30  12  14  ar  
 31  13  15  ar  
 32  13  46  1   
 33  14  16  ar  
 34  14  20  1   
 35  15  17  ar  
 36  15  45  1   
 37  16  17  ar  
 38  16  44  1   
 39  17  18  1   
 40  22  23  1   
 41  23  24  2   
 42  23  25  1   
 43  24  26  1   
 44  24  47  1   
 45  25  27  1   
 46  26  27  2   
 47  26  43  1   
 48  27  28  1   
 49  28  29  2   
 50  28  42  1   
 51  29  41  1   
@<TRIPOS>SUBSTRUCTURE
  1 Q101  19 GROUP 4 **** **** 0

# MOE 2011.10 (io_trps.svl 2011.10)

@<TRIPOS>MOLECULE
FXA101_116
49 51 1 0 0 
SMALL
USER_CHARGES


@<TRIPOS>ATOM
  1 N1       3.9450    20.3290    13.2550 N.am  1 Q101  -0.8960 
  2 S1       3.5720    21.5670    14.2240 S.o2  1 Q101   1.3220 
  3 N2       2.9980    17.7840    11.1350 N.am  1 Q101  -0.3970 
  4 N3       3.5600    12.1300     7.9840 N.am  1 Q101  -0.4840 
  5 O3       3.9350    17.4260    13.2100 O.2   1 Q101  -0.6040 
  6 O4       5.4650    12.2620     9.1220 O.2   1 Q101  -0.6060 
  7 C7       2.8900    10.9550     8.5620 C.3   1 Q101   0.0840 
  8 C8       3.2420    12.4880     6.5920 C.3   1 Q101   0.0840 
  9 C12      2.8860    19.5600    12.6430 C.3   1 Q101   0.1690 
 10 C13      2.4820    20.0690    11.2550 C.3   1 Q101  -0.1080 
 11 C14      2.2390    18.8090    10.4320 C.3   1 Q101   0.1020 
 12 C15      3.3520    16.5390    10.5270 C.ar  1 Q101   0.0330 
 13 C21      2.6540    15.3740    10.8110 C.ar  1 Q101  -0.1060 
 14 C22      4.4270    16.4570     9.6540 C.ar  1 Q101   0.1210 
 15 C24      3.0060    14.1680    10.2380 C.ar  1 Q101  -0.0920 
 16 C26      4.8100    15.2650     9.0610 C.ar  1 Q101  -0.1400 
 17 C27      4.0790    14.1150     9.3610 C.ar  1 Q101  -0.1150 
 18 C28      4.4010    12.7680     8.8040 C.2   1 Q101   0.6760 
 19 C50      3.3500    18.1290    12.3990 C.2   1 Q101   0.6950 
 20 F1       5.1130    17.5790     9.3830 F     1 Q101  -0.1400 
 21 O1       2.3370    22.0640    13.7020 O.2   1 Q101  -0.5930 
 22 CL1      0.8720    21.5450    21.9560 Cl    1 Q101  -0.0550 
 23 C1       1.5440    21.2140    20.3950 C.2   1 Q101   0.0330 
 24 C2       2.2060    20.0940    20.0170 C.2   1 Q101  -0.1460 
 25 S2       1.3880    22.3850    19.1460 S.3   1 Q101   0.0240 
 26 C3       2.6110    20.1730    18.6820 C.2   1 Q101  -0.1130 
 27 C4       2.2520    21.3590    18.0520 C.2   1 Q101  -0.0920 
 28 C5       2.5660    21.6770    16.6540 C.2   1 Q101   0.0810 
 29 C6       3.3090    20.9440    15.8250 C.2   1 Q101  -0.4200 
 30 O2       4.7690    22.3600    14.1930 O.2   1 Q101  -0.5930 
 31 H142     2.5890    18.9130     9.4000 H     1 Q101   0.0600 
 32 H141     1.1810    18.5290    10.4390 H     1 Q101   0.0600 
 33 H132     1.6040    20.7220    11.2900 H     1 Q101   0.0720 
 34 H131     3.3030    20.6450    10.8100 H     1 Q101   0.0720 
 35 H83      3.8400    11.8740     5.9230 H     1 Q101   0.0490 
 36 H82      2.1760    12.3180     6.4150 H     1 Q101   0.0490 
 37 H81      3.4610    13.5420     6.4420 H     1 Q101   0.0490 
 38 H73      2.2500    11.2900     9.3840 H     1 Q101   0.0490 
 39 H72      2.2930    10.4410     7.8050 H     1 Q101   0.0490 
 40 H71      3.6390    10.2660     8.9670 H     1 Q101   0.0490 
 41 H6       3.7670    20.0000    16.0840 H     1 Q101   0.1940 
 42 H5       2.0820    22.5840    16.2940 H     1 Q101   0.1560 
 43 H3       3.1430    19.3770    18.1710 H     1 Q101   0.1600 
 44 H26      5.6500    15.2410     8.3780 H     1 Q101   0.1600 
 45 H24      2.4650    13.2710    10.5070 H     1 Q101   0.1630 
 46 H21      1.8200    15.3950    11.5080 H     1 Q101   0.1530 
 47 H2       2.3950    19.2410    20.6540 H     1 Q101   0.1720 
 48 H12      1.9900    19.4990    13.2720 H     1 Q101   0.0910 
 49 H1       4.8140    19.8320    13.4630 H     1 Q101   0.4670 
@<TRIPOS>BOND
  1   1   2  am  
  2   1   9  1   
  3   1  49  1   
  4   2  21  2   
  5   2  29  1   
  6   2  30  2   
  7   3  11  1   
  8   3  12  1   
  9   3  19  am  
 10   4   7  1   
 11   4   8  1   
 12   4  18  am  
 13   5  19  2   
 14   6  18  2   
 15   7  38  1   
 16   7  39  1   
 17   7  40  1   
 18   8  35  1   
 19   8  36  1   
 20   8  37  1   
 21   9  10  1   
 22   9  19  1   
 23   9  48  1   
 24  10  11  1   
 25  10  33  1   
 26  10  34  1   
 27  11  31  1   
 28  11  32  1   
 29  12  13  ar  
 30  12  14  ar  
 31  13  15  ar  
 32  13  46  1   
 33  14  16  ar  
 34  14  20  1   
 35  15  17  ar  
 36  15  45  1   
 37  16  17  ar  
 38  16  44  1   
 39  17  18  1   
 40  22  23  1   
 41  23  24  2   
 42  23  25  1   
 43  24  26  1   
 44  24  47  1   
 45  25  27  1   
 46  26  27  2   
 47  26  43  1   
 48  27  28  1   
 49  28  29  2   
 50  28  42  1   
 51  29  41  1   
@<TRIPOS>SUBSTRUCTURE
  1 Q101  19 GROUP 4 **** **** 0

# MOE 2011.10 (io_trps.svl 2011.10)

@<TRIPOS>MOLECULE
FXA101_117
49 51 1 0 0 
SMALL
USER_CHARGES


@<TRIPOS>ATOM
  1 N1       7.4350     9.5500    22.7300 N.am  1 Q101  -0.8960 
  2 S1       8.6160     9.2570    23.7920 S.o2  1 Q101   1.3220 
  3 N2       5.8360     8.6600    19.8120 N.am  1 Q101  -0.3970 
  4 N3       3.3380     9.5420    13.8840 N.am  1 Q101  -0.4840 
  5 O3       7.8720     9.7370    19.8660 O.2   1 Q101  -0.6040 
  6 O4       4.8410    11.1730    14.0330 O.2   1 Q101  -0.6060 
  7 C7       1.9450     9.8300    14.2640 C.3   1 Q101   0.0840 
  8 C8       3.5690     8.5520    12.8200 C.3   1 Q101   0.0840 
  9 C12      7.0320     8.5130    21.8080 C.3   1 Q101   0.1690 
 10 C13      5.6100     7.9960    22.0500 C.3   1 Q101  -0.1080 
 11 C14      5.0260     7.7940    20.6560 C.3   1 Q101   0.1020 
 12 C15      5.4200     9.0640    18.5040 C.ar  1 Q101   0.0330 
 13 C21      5.5540     8.2180    17.4120 C.ar  1 Q101  -0.1060 
 14 C22      4.8950    10.3300    18.2860 C.ar  1 Q101   0.1210 
 15 C24      5.1680     8.6130    16.1470 C.ar  1 Q101  -0.0920 
 16 C26      4.4980    10.7610    17.0310 C.ar  1 Q101  -0.1400 
 17 C27      4.6370     9.8800    15.9580 C.ar  1 Q101  -0.1150 
 18 C28      4.2660    10.2310    14.5540 C.2   1 Q101   0.6760 
 19 C50      6.9980     9.0600    20.3860 C.2   1 Q101   0.6950 
 20 F1       4.7720    11.1560    19.3370 F     1 Q101  -0.1400 
 21 O1       8.5910    10.3870    24.6680 O.2   1 Q101  -0.5930 
 22 CL1     14.3140     7.4080    25.8260 Cl    1 Q101  -0.0550 
 23 C1      12.6340     7.4280    26.2480 C.2   1 Q101   0.0330 
 24 C2      12.1050     7.2580    27.4830 C.2   1 Q101  -0.1460 
 25 S2      11.4620     7.6900    25.0180 S.3   1 Q101   0.0240 
 26 C3      10.7100     7.3320    27.4490 C.2   1 Q101  -0.1130 
 27 C4      10.1870     7.5600    26.1820 C.2   1 Q101  -0.0920 
 28 C5       8.7530     7.6740    25.8910 C.2   1 Q101   0.0810 
 29 C6       8.2010     7.8270    24.6880 C.2   1 Q101  -0.4200 
 30 O2       9.7440     8.9970    22.9420 O.2   1 Q101  -0.5930 
 31 H142     3.9700     8.0760    20.6030 H     1 Q101   0.0600 
 32 H141     5.1510     6.7600    20.3200 H     1 Q101   0.0600 
 33 H132     5.5960     7.0800    22.6460 H     1 Q101   0.0720 
 34 H131     5.0210     8.7490    22.5880 H     1 Q101   0.0720 
 35 H83      3.5280     7.5540    13.2500 H     1 Q101   0.0490 
 36 H82      2.8000     8.6680    12.0510 H     1 Q101   0.0490 
 37 H81      4.5440     8.7360    12.3740 H     1 Q101   0.0490 
 38 H73      1.7270    10.8730    14.0170 H     1 Q101   0.0490 
 39 H72      1.2570     9.1650    13.7370 H     1 Q101   0.0490 
 40 H71      1.8250     9.7000    15.3450 H     1 Q101   0.0490 
 41 H6       7.5260     7.1190    24.2280 H     1 Q101   0.1940 
 42 H5       8.1200     7.5670    26.7720 H     1 Q101   0.1560 
 43 H3      10.0860     7.2390    28.3330 H     1 Q101   0.1600 
 44 H26      4.0860    11.7530    16.9000 H     1 Q101   0.1600 
 45 H24      5.3180     7.9450    15.3090 H     1 Q101   0.1630 
 46 H21      5.9820     7.2270    17.5400 H     1 Q101   0.1530 
 47 H2      12.6780     7.0940    28.3850 H     1 Q101   0.1720 
 48 H12      7.7220     7.6610    21.8030 H     1 Q101   0.0910 
 49 H1       7.3410    10.5160    22.4060 H     1 Q101   0.4670 
@<TRIPOS>BOND
  1   1   2  am  
  2   1   9  1   
  3   1  49  1   
  4   2  21  2   
  5   2  29  1   
  6   2  30  2   
  7   3  11  1   
  8   3  12  1   
  9   3  19  am  
 10   4   7  1   
 11   4   8  1   
 12   4  18  am  
 13   5  19  2   
 14   6  18  2   
 15   7  38  1   
 16   7  39  1   
 17   7  40  1   
 18   8  35  1   
 19   8  36  1   
 20   8  37  1   
 21   9  10  1   
 22   9  19  1   
 23   9  48  1   
 24  10  11  1   
 25  10  33  1   
 26  10  34  1   
 27  11  31  1   
 28  11  32  1   
 29  12  13  ar  
 30  12  14  ar  
 31  13  15  ar  
 32  13  46  1   
 33  14  16  ar  
 34  14  20  1   
 35  15  17  ar  
 36  15  45  1   
 37  16  17  ar  
 38  16  44  1   
 39  17  18  1   
 40  22  23  1   
 41  23  24  2   
 42  23  25  1   
 43  24  26  1   
 44  24  47  1   
 45  25  27  1   
 46  26  27  2   
 47  26  43  1   
 48  27  28  1   
 49  28  29  2   
 50  28  42  1   
 51  29  41  1   
@<TRIPOS>SUBSTRUCTURE
  1 Q101  19 GROUP 4 **** **** 0

# MOE 2011.10 (io_trps.svl 2011.10)

@<TRIPOS>MOLECULE
FXA101_118
49 51 1 0 0 
SMALL
USER_CHARGES


@<TRIPOS>ATOM
  1 N1       6.3640     8.3000    22.1580 N.am  1 Q101  -0.8960 
  2 S1       6.6140     8.9750    23.6040 S.o2  1 Q101   1.3220 
  3 N2       4.0320     6.7280    20.1680 N.am  1 Q101  -0.3970 
  4 N3       1.0280     1.7040    17.2860 N.am  1 Q101  -0.4840 
  5 O3       4.6910     5.9290    22.2270 O.2   1 Q101  -0.6040 
  6 O4       3.0680     0.9450    17.7340 O.2   1 Q101  -0.6060 
  7 C7       0.3300     0.4650    17.6620 C.3   1 Q101   0.0840 
  8 C8       0.3250     2.6490    16.4020 C.3   1 Q101   0.0840 
  9 C12      5.0280     8.2690    21.6080 C.3   1 Q101   0.1690 
 10 C13      4.9250     8.8960    20.2140 C.3   1 Q101  -0.1080 
 11 C14      3.9660     7.9920    19.4480 C.3   1 Q101   0.1020 
 12 C15      3.5810     5.4960    19.5990 C.ar  1 Q101   0.0330 
 13 C21      4.2660     4.8900    18.5560 C.ar  1 Q101  -0.1060 
 14 C22      2.4250     4.8840    20.0600 C.ar  1 Q101   0.1210 
 15 C24      3.8230     3.7090    17.9950 C.ar  1 Q101  -0.0920 
 16 C26      1.9480     3.6990    19.5210 C.ar  1 Q101  -0.1400 
 17 C27      2.6690     3.1120    18.4810 C.ar  1 Q101  -0.1150 
 18 C28      2.2520     1.8490    17.8030 C.2   1 Q101   0.6760 
 19 C50      4.5770     6.8280    21.4070 C.2   1 Q101   0.6950 
 20 F1       1.7510     5.4700    21.0630 F     1 Q101  -0.1400 
 21 O1       5.8030     8.2060    24.4970 O.2   1 Q101  -0.5930 
 22 CL1     13.9380     7.3170    26.2320 Cl    1 Q101  -0.0550 
 23 C1      12.2200     7.5220    26.3170 C.2   1 Q101   0.0330 
 24 C2      11.4140     7.1980    27.3560 C.2   1 Q101  -0.1460 
 25 S2      11.3880     8.2080    24.9780 S.3   1 Q101   0.0240 
 26 C3      10.0790     7.5010    27.0730 C.2   1 Q101  -0.1130 
 27 C4       9.8810     8.0560    25.8150 C.2   1 Q101  -0.0920 
 28 C5       8.5700     8.4550    25.2880 C.2   1 Q101   0.0810 
 29 C6       8.2880     8.7620    24.0220 C.2   1 Q101  -0.4200 
 30 O2       6.3390    10.3620    23.3550 O.2   1 Q101  -0.5930 
 31 H142     4.2640     7.8600    18.4030 H     1 Q101   0.0600 
 32 H141     2.9400     8.3700    19.4960 H     1 Q101   0.0600 
 33 H132     4.5830     9.9350    20.2480 H     1 Q101   0.0720 
 34 H131     5.9060     8.8900    19.7230 H     1 Q101   0.0720 
 35 H83      0.4430     2.3230    15.3710 H     1 Q101   0.0490 
 36 H82     -0.7340     2.6730    16.6760 H     1 Q101   0.0490 
 37 H81      0.7480     3.6410    16.5410 H     1 Q101   0.0490 
 38 H73      0.1580     0.4780    18.7410 H     1 Q101   0.0490 
 39 H72     -0.6200     0.3810    17.1280 H     1 Q101   0.0490 
 40 H71      0.9600    -0.3990    17.4240 H     1 Q101   0.0490 
 41 H6       9.0250     8.9000    23.2450 H     1 Q101   0.1940 
 42 H5       7.7760     8.4340    26.0340 H     1 Q101   0.1560 
 43 H3       9.2680     7.3360    27.7760 H     1 Q101   0.1600 
 44 H26      1.0460     3.2470    19.9120 H     1 Q101   0.1600 
 45 H24      4.3590     3.2800    17.1590 H     1 Q101   0.1630 
 46 H21      5.1650     5.3520    18.1530 H     1 Q101   0.1530 
 47 H2      11.7500     6.7680    28.2900 H     1 Q101   0.1720 
 48 H12      4.2900     8.7440    22.2640 H     1 Q101   0.0910 
 49 H1       6.9870     7.5310    21.8990 H     1 Q101   0.4670 
@<TRIPOS>BOND
  1   1   2  am  
  2   1   9  1   
  3   1  49  1   
  4   2  21  2   
  5   2  29  1   
  6   2  30  2   
  7   3  11  1   
  8   3  12  1   
  9   3  19  am  
 10   4   7  1   
 11   4   8  1   
 12   4  18  am  
 13   5  19  2   
 14   6  18  2   
 15   7  38  1   
 16   7  39  1   
 17   7  40  1   
 18   8  35  1   
 19   8  36  1   
 20   8  37  1   
 21   9  10  1   
 22   9  19  1   
 23   9  48  1   
 24  10  11  1   
 25  10  33  1   
 26  10  34  1   
 27  11  31  1   
 28  11  32  1   
 29  12  13  ar  
 30  12  14  ar  
 31  13  15  ar  
 32  13  46  1   
 33  14  16  ar  
 34  14  20  1   
 35  15  17  ar  
 36  15  45  1   
 37  16  17  ar  
 38  16  44  1   
 39  17  18  1   
 40  22  23  1   
 41  23  24  2   
 42  23  25  1   
 43  24  26  1   
 44  24  47  1   
 45  25  27  1   
 46  26  27  2   
 47  26  43  1   
 48  27  28  1   
 49  28  29  2   
 50  28  42  1   
 51  29  41  1   
@<TRIPOS>SUBSTRUCTURE
  1 Q101   5 GROUP 4 **** **** 0

# MOE 2011.10 (io_trps.svl 2011.10)

@<TRIPOS>MOLECULE
FXA101_119
49 51 1 0 0 
SMALL
USER_CHARGES


@<TRIPOS>ATOM
  1 N1       6.1530     7.4670    20.4600 N.am  1 Q101  -0.8960 
  2 S1       6.1680     8.8240    21.3350 S.o2  1 Q101   1.3220 
  3 N2       7.2730     4.2440    19.9820 N.am  1 Q101  -0.3970 
  4 N3      10.7440    -0.2090    16.8460 N.am  1 Q101  -0.4840 
  5 O3       8.4580     6.1100    19.3310 O.2   1 Q101  -0.6040 
  6 O4       9.1810     0.2570    15.3370 O.2   1 Q101  -0.6060 
  7 C7      10.9410    -1.5230    16.2150 C.3   1 Q101   0.0840 
  8 C8      11.7370     0.2330    17.8390 C.3   1 Q101   0.0840 
  9 C12      6.6980     6.2520    21.0210 C.3   1 Q101   0.1690 
 10 C13      5.6340     5.2020    21.3590 C.3   1 Q101  -0.1080 
 11 C14      6.2550     3.8700    20.9540 C.3   1 Q101   0.1020 
 12 C15      7.8520     3.3010    19.0760 C.ar  1 Q101   0.0330 
 13 C21      8.3630     2.0910    19.5260 C.ar  1 Q101  -0.1060 
 14 C22      7.9460     3.5830    17.7220 C.ar  1 Q101   0.1210 
 15 C24      8.9380     1.1870    18.6550 C.ar  1 Q101  -0.0920 
 16 C26      8.5170     2.7010    16.8180 C.ar  1 Q101  -0.1400 
 17 C27      9.0100     1.4900    17.3030 C.ar  1 Q101  -0.1150 
 18 C28      9.6640     0.4640    16.4380 C.2   1 Q101   0.6760 
 19 C50      7.5980     5.5610    20.0030 C.2   1 Q101   0.6950 
 20 F1       7.4620     4.7570    17.2820 F     1 Q101  -0.1400 
 21 O1       5.3130     9.7170    20.6150 O.2   1 Q101  -0.5930 
 22 CL1     10.8910    10.6660    25.0430 Cl    1 Q101  -0.0550 
 23 C1       9.6220     9.5010    24.8680 C.2   1 Q101   0.0330 
 24 C2       9.6040     8.2390    25.3620 C.2   1 Q101  -0.1460 
 25 S2       8.2060     9.9250    23.9900 S.3   1 Q101   0.0240 
 26 C3       8.4180     7.5810    25.0240 C.2   1 Q101  -0.1130 
 27 C4       7.5400     8.3520    24.2710 C.2   1 Q101  -0.0920 
 28 C5       6.2350     7.8810    23.7920 C.2   1 Q101   0.0810 
 29 C6       5.4630     8.4800    22.8860 C.2   1 Q101  -0.4200 
 30 O2       7.5720     9.0890    21.4790 O.2   1 Q101  -0.5930 
 31 H142     5.5240     3.1880    20.5100 H     1 Q101   0.0600 
 32 H141     6.7450     3.3860    21.8060 H     1 Q101   0.0600 
 33 H132     5.3460     5.2260    22.4140 H     1 Q101   0.0720 
 34 H131     4.7270     5.3780    20.7670 H     1 Q101   0.0720 
 35 H83     11.4990    -0.2150    18.8010 H     1 Q101   0.0490 
 36 H82     12.7330    -0.0780    17.5100 H     1 Q101   0.0490 
 37 H81     11.7100     1.3180    17.9050 H     1 Q101   0.0490 
 38 H73     11.1160    -1.3720    15.1460 H     1 Q101   0.0490 
 39 H72     11.7890    -2.0440    16.6670 H     1 Q101   0.0490 
 40 H71     10.0350    -2.1270    16.3340 H     1 Q101   0.0490 
 41 H6       4.4300     8.7530    23.0440 H     1 Q101   0.1940 
 42 H5       5.9370     6.9210    24.2120 H     1 Q101   0.1560 
 43 H3       8.1910     6.5660    25.3320 H     1 Q101   0.1600 
 44 H26      8.5650     2.9530    15.7670 H     1 Q101   0.1600 
 45 H24      9.3590     0.2680    19.0400 H     1 Q101   0.1630 
 46 H21      8.3280     1.8440    20.5840 H     1 Q101   0.1530 
 47 H2      10.3940     7.7940    25.9500 H     1 Q101   0.1720 
 48 H12      7.3100     6.4340    21.9120 H     1 Q101   0.0910 
 49 H1       6.2220     7.5760    19.4450 H     1 Q101   0.4670 
@<TRIPOS>BOND
  1   1   2  am  
  2   1   9  1   
  3   1  49  1   
  4   2  21  2   
  5   2  29  1   
  6   2  30  2   
  7   3  11  1   
  8   3  12  1   
  9   3  19  am  
 10   4   7  1   
 11   4   8  1   
 12   4  18  am  
 13   5  19  2   
 14   6  18  2   
 15   7  38  1   
 16   7  39  1   
 17   7  40  1   
 18   8  35  1   
 19   8  36  1   
 20   8  37  1   
 21   9  10  1   
 22   9  19  1   
 23   9  48  1   
 24  10  11  1   
 25  10  33  1   
 26  10  34  1   
 27  11  31  1   
 28  11  32  1   
 29  12  13  ar  
 30  12  14  ar  
 31  13  15  ar  
 32  13  46  1   
 33  14  16  ar  
 34  14  20  1   
 35  15  17  ar  
 36  15  45  1   
 37  16  17  ar  
 38  16  44  1   
 39  17  18  1   
 40  22  23  1   
 41  23  24  2   
 42  23  25  1   
 43  24  26  1   
 44  24  47  1   
 45  25  27  1   
 46  26  27  2   
 47  26  43  1   
 48  27  28  1   
 49  28  29  2   
 50  28  42  1   
 51  29  41  1   
@<TRIPOS>SUBSTRUCTURE
  1 Q101  19 GROUP 4 **** **** 0

# MOE 2011.10 (io_trps.svl 2011.10)

@<TRIPOS>MOLECULE
FXA101_120
49 51 1 0 0 
SMALL
USER_CHARGES


@<TRIPOS>ATOM
  1 N1       3.9200     8.2490    21.3930 N.am  1 Q101  -0.8960 
  2 S1       3.8800     9.2920    22.6260 S.o2  1 Q101   1.3220 
  3 N2       4.9270     5.0890    20.4620 N.am  1 Q101  -0.3970 
  4 N3       8.5440     1.2470    16.6200 N.am  1 Q101  -0.4840 
  5 O3       6.3580     6.6740    21.3290 O.2   1 Q101  -0.6040 
  6 O4       9.9000     1.7980    18.2920 O.2   1 Q101  -0.6060 
  7 C7       9.7110     0.6570    15.9460 C.3   1 Q101   0.0840 
  8 C8       7.2220     1.0550    16.0000 C.3   1 Q101   0.0840 
  9 C12      3.9410     6.8300    21.6610 C.3   1 Q101   0.1690 
 10 C13      2.8410     6.0520    20.9320 C.3   1 Q101  -0.1080 
 11 C14      3.5090     4.7580    20.4810 C.3   1 Q101   0.1020 
 12 C15      5.8910     4.2990    19.7590 C.ar  1 Q101   0.0330 
 13 C21      6.1780     2.9990    20.1500 C.ar  1 Q101  -0.1060 
 14 C22      6.5870     4.8240    18.6810 C.ar  1 Q101   0.1210 
 15 C24      7.1200     2.2410    19.4830 C.ar  1 Q101  -0.0920 
 16 C26      7.5400     4.0940    17.9880 C.ar  1 Q101  -0.1400 
 17 C27      7.7950     2.7860    18.4010 C.ar  1 Q101  -0.1150 
 18 C28      8.8100     1.9030    17.7520 C.2   1 Q101   0.6760 
 19 C50      5.2390     6.2180    21.1470 C.2   1 Q101   0.6950 
 20 F1       6.3200     6.0850    18.3040 F     1 Q101  -0.1400 
 21 O1       3.1710     8.5950    23.6550 O.2   1 Q101  -0.5930 
 22 CL1     11.2240     9.9140    25.6220 Cl    1 Q101  -0.0550 
 23 C1       9.7150     9.1510    25.2490 C.2   1 Q101   0.0330 
 24 C2       9.3240     7.9050    25.6090 C.2   1 Q101  -0.1460 
 25 S2       8.5430    10.0100    24.3300 S.3   1 Q101   0.0240 
 26 C3       8.0430     7.6190    25.1300 C.2   1 Q101  -0.1130 
 27 C4       7.4670     8.6560    24.4050 C.2   1 Q101  -0.0920 
 28 C5       6.1320     8.5940    23.7990 C.2   1 Q101   0.0810 
 29 C6       5.5130     9.5790    23.1490 C.2   1 Q101  -0.4200 
 30 O2       3.3400    10.4760    22.0180 O.2   1 Q101  -0.5930 
 31 H142     3.1710     4.4380    19.4910 H     1 Q101   0.0600 
 32 H141     3.3470     3.9540    21.2060 H     1 Q101   0.0600 
 33 H132     1.9670     5.8720    21.5660 H     1 Q101   0.0720 
 34 H131     2.4990     6.6130    20.0540 H     1 Q101   0.0720 
 35 H83      7.0880     1.7970    15.2160 H     1 Q101   0.0490 
 36 H82      7.1670     0.0450    15.5830 H     1 Q101   0.0490 
 37 H81      6.4560     1.1630    16.7640 H     1 Q101   0.0490 
 38 H73     10.1370    -0.1100    16.5980 H     1 Q101   0.0490 
 39 H72      9.4220     0.2190    14.9870 H     1 Q101   0.0490 
 40 H71     10.4700     1.4300    15.7810 H     1 Q101   0.0490 
 41 H6       5.9490    10.5440    22.9380 H     1 Q101   0.1940 
 42 H5       5.6660     7.6120    23.8710 H     1 Q101   0.1560 
 43 H3       7.5310     6.6800    25.3180 H     1 Q101   0.1600 
 44 H26      8.0580     4.5340    17.1460 H     1 Q101   0.1600 
 45 H24      7.3480     1.2430    19.8330 H     1 Q101   0.1630 
 46 H21      5.6680     2.5610    21.0040 H     1 Q101   0.1530 
 47 H2       9.9150     7.2170    26.1980 H     1 Q101   0.1720 
 48 H12      3.8860     6.6010    22.7320 H     1 Q101   0.0910 
 49 H1       4.3940     8.5640    20.5430 H     1 Q101   0.4670 
@<TRIPOS>BOND
  1   1   2  am  
  2   1   9  1   
  3   1  49  1   
  4   2  21  2   
  5   2  29  1   
  6   2  30  2   
  7   3  11  1   
  8   3  12  1   
  9   3  19  am  
 10   4   7  1   
 11   4   8  1   
 12   4  18  am  
 13   5  19  2   
 14   6  18  2   
 15   7  38  1   
 16   7  39  1   
 17   7  40  1   
 18   8  35  1   
 19   8  36  1   
 20   8  37  1   
 21   9  10  1   
 22   9  19  1   
 23   9  48  1   
 24  10  11  1   
 25  10  33  1   
 26  10  34  1   
 27  11  31  1   
 28  11  32  1   
 29  12  13  ar  
 30  12  14  ar  
 31  13  15  ar  
 32  13  46  1   
 33  14  16  ar  
 34  14  20  1   
 35  15  17  ar  
 36  15  45  1   
 37  16  17  ar  
 38  16  44  1   
 39  17  18  1   
 40  22  23  1   
 41  23  24  2   
 42  23  25  1   
 43  24  26  1   
 44  24  47  1   
 45  25  27  1   
 46  26  27  2   
 47  26  43  1   
 48  27  28  1   
 49  28  29  2   
 50  28  42  1   
 51  29  41  1   
@<TRIPOS>SUBSTRUCTURE
  1 Q101   5 GROUP 4 **** **** 0

# MOE 2011.10 (io_trps.svl 2011.10)

@<TRIPOS>MOLECULE
FXA101_121
49 51 1 0 0 
SMALL
USER_CHARGES


@<TRIPOS>ATOM
  1 N1       5.3090     7.6170    22.7500 N.am  1 Q101  -0.8960 
  2 S1       5.2490     8.5990    24.0310 S.o2  1 Q101   1.3220 
  3 N2       3.4760     6.2620    20.1670 N.am  1 Q101  -0.3970 
  4 N3       2.7890     4.3070    14.0020 N.am  1 Q101  -0.4840 
  5 O3       5.3470     5.2560    21.0610 O.2   1 Q101  -0.6040 
  6 O4       4.4390     3.0290    14.7660 O.2   1 Q101  -0.6060 
  7 C7       2.9780     3.6450    12.7010 C.3   1 Q101   0.0840 
  8 C8       1.7420     5.3370    14.1030 C.3   1 Q101   0.0840 
  9 C12      4.1050     6.9550    22.3040 C.3   1 Q101   0.1690 
 10 C13      3.0390     7.9170    21.7690 C.3   1 Q101  -0.1080 
 11 C14      2.4410     7.2070    20.5600 C.3   1 Q101   0.1020 
 12 C15      3.5020     5.6440    18.8770 C.ar  1 Q101   0.0330 
 13 C21      4.4760     5.9680    17.9430 C.ar  1 Q101  -0.1060 
 14 C22      2.5340     4.7190    18.5140 C.ar  1 Q101   0.1210 
 15 C24      4.4920     5.3850    16.6920 C.ar  1 Q101  -0.0920 
 16 C26      2.5180     4.1140    17.2680 C.ar  1 Q101  -0.1400 
 17 C27      3.5180     4.4560    16.3570 C.ar  1 Q101  -0.1150 
 18 C28      3.6010     3.8910    14.9780 C.2   1 Q101   0.6760 
 19 C50      4.4140     6.0430    21.1220 C.2   1 Q101   0.6950 
 20 F1       1.5840     4.4090    19.4110 F     1 Q101  -0.1400 
 21 O1       4.1360     8.1200    24.7910 O.2   1 Q101  -0.5930 
 22 CL1     12.4730     7.2090    27.0360 Cl    1 Q101  -0.0550 
 23 C1      11.2930     7.8270    25.9290 C.2   1 Q101   0.0330 
 24 C2      11.5280     8.3570    24.7050 C.2   1 Q101  -0.1460 
 25 S2       9.6300     7.7900    26.3660 S.3   1 Q101   0.0240 
 26 C3      10.3370     8.7560    24.0910 C.2   1 Q101  -0.1130 
 27 C4       9.2010     8.5250    24.8580 C.2   1 Q101  -0.0920 
 28 C5       7.8380     8.8610    24.4320 C.2   1 Q101   0.0810 
 29 C6       6.7080     8.3840    24.9510 C.2   1 Q101  -0.4200 
 30 O2       5.2340     9.9020    23.4260 O.2   1 Q101  -0.5930 
 31 H142     2.2140     7.8980    19.7420 H     1 Q101   0.0600 
 32 H141     1.5410     6.6480    20.8330 H     1 Q101   0.0600 
 33 H132     2.2850     8.1650    22.5230 H     1 Q101   0.0720 
 34 H131     3.5040     8.8580    21.4490 H     1 Q101   0.0720 
 35 H83      2.1360     6.2800    13.7300 H     1 Q101   0.0490 
 36 H82      0.8760     5.0250    13.5110 H     1 Q101   0.0490 
 37 H81      1.4420     5.4320    15.1430 H     1 Q101   0.0490 
 38 H73      2.7310     2.5860    12.8130 H     1 Q101   0.0490 
 39 H72      2.3430     4.1030    11.9400 H     1 Q101   0.0490 
 40 H71      4.0280     3.7230    12.3980 H     1 Q101   0.0490 
 41 H6       6.6380     7.8630    25.8950 H     1 Q101   0.1940 
 42 H5       7.8000     9.6140    23.6450 H     1 Q101   0.1560 
 43 H3      10.2960     9.1920    23.0980 H     1 Q101   0.1600 
 44 H26      1.7510     3.3910    17.0220 H     1 Q101   0.1600 
 45 H24      5.2420     5.6840    15.9720 H     1 Q101   0.1630 
 46 H21      5.2380     6.7050    18.1830 H     1 Q101   0.1530 
 47 H2      12.5030     8.4550    24.2490 H     1 Q101   0.1720 
 48 H12      3.6550     6.3260    23.0800 H     1 Q101   0.0910 
 49 H1       6.1910     7.1220    22.5940 H     1 Q101   0.4670 
@<TRIPOS>BOND
  1   1   2  am  
  2   1   9  1   
  3   1  49  1   
  4   2  21  2   
  5   2  29  1   
  6   2  30  2   
  7   3  11  1   
  8   3  12  1   
  9   3  19  am  
 10   4   7  1   
 11   4   8  1   
 12   4  18  am  
 13   5  19  2   
 14   6  18  2   
 15   7  38  1   
 16   7  39  1   
 17   7  40  1   
 18   8  35  1   
 19   8  36  1   
 20   8  37  1   
 21   9  10  1   
 22   9  19  1   
 23   9  48  1   
 24  10  11  1   
 25  10  33  1   
 26  10  34  1   
 27  11  31  1   
 28  11  32  1   
 29  12  13  ar  
 30  12  14  ar  
 31  13  15  ar  
 32  13  46  1   
 33  14  16  ar  
 34  14  20  1   
 35  15  17  ar  
 36  15  45  1   
 37  16  17  ar  
 38  16  44  1   
 39  17  18  1   
 40  22  23  1   
 41  23  24  2   
 42  23  25  1   
 43  24  26  1   
 44  24  47  1   
 45  25  27  1   
 46  26  27  2   
 47  26  43  1   
 48  27  28  1   
 49  28  29  2   
 50  28  42  1   
 51  29  41  1   
@<TRIPOS>SUBSTRUCTURE
  1 Q101  19 GROUP 4 **** **** 0

# MOE 2011.10 (io_trps.svl 2011.10)

@<TRIPOS>MOLECULE
FXA101_122
49 51 1 0 0 
SMALL
USER_CHARGES


@<TRIPOS>ATOM
  1 N1       6.4020     9.4680    20.9750 N.am  1 Q101  -0.8960 
  2 S1       7.1290    10.4890    21.9940 S.o2  1 Q101   1.3220 
  3 N2       5.3610     6.2600    20.2750 N.am  1 Q101  -0.3970 
  4 N3       6.5490     1.7830    15.7000 N.am  1 Q101  -0.4840 
  5 O3       7.5450     6.9610    20.0590 O.2   1 Q101  -0.6040 
  6 O4       4.8360     0.9340    16.8330 O.2   1 Q101  -0.6060 
  7 C7       7.8830     1.3520    16.1440 C.3   1 Q101   0.0840 
  8 C8       6.3640     2.0840    14.2700 C.3   1 Q101   0.0840 
  9 C12      5.9530     8.1810    21.4560 C.3   1 Q101   0.1690 
 10 C13      4.4280     8.0370    21.4880 C.3   1 Q101  -0.1080 
 11 C14      4.1600     6.6100    21.0200 C.3   1 Q101   0.1020 
 12 C15      5.4020     5.1610    19.3590 C.ar  1 Q101   0.0330 
 13 C21      5.8480     3.9080    19.7560 C.ar  1 Q101  -0.1060 
 14 C22      5.0230     5.3270    18.0350 C.ar  1 Q101   0.1210 
 15 C24      5.9040     2.8520    18.8700 C.ar  1 Q101  -0.0920 
 16 C26      5.0660     4.2900    17.1160 C.ar  1 Q101  -0.1400 
 17 C27      5.5090     3.0420    17.5540 C.ar  1 Q101  -0.1150 
 18 C28      5.6220     1.8510    16.6600 C.2   1 Q101   0.6760 
 19 C50      6.4160     7.0780    20.5130 C.2   1 Q101   0.6950 
 20 F1       4.6000     6.5400    17.6420 F     1 Q101  -0.1400 
 21 O1       6.1760    10.6760    23.0440 O.2   1 Q101  -0.5930 
 22 CL1     11.7980     6.9060    27.6790 Cl    1 Q101  -0.0550 
 23 C1      11.1060     7.6540    26.2790 C.2   1 Q101   0.0330 
 24 C2      11.7650     8.0720    25.1720 C.2   1 Q101  -0.1460 
 25 S2       9.4080     7.9200    26.2210 S.3   1 Q101   0.0240 
 26 C3      10.8850     8.6330    24.2420 C.2   1 Q101  -0.1130 
 27 C4       9.5570     8.6360    24.6520 C.2   1 Q101  -0.0920 
 28 C5       8.4500     9.1730    23.8520 C.2   1 Q101   0.0810 
 29 C6       8.5420     9.7060    22.6340 C.2   1 Q101  -0.4200 
 30 O2       7.5110    11.5720    21.1320 O.2   1 Q101  -0.5930 
 31 H142     3.2730     6.5410    20.3830 H     1 Q101   0.0600 
 32 H141     4.0620     5.9270    21.8690 H     1 Q101   0.0600 
 33 H132     4.0110     8.2370    22.4790 H     1 Q101   0.0720 
 34 H131     3.9670     8.7440    20.7880 H     1 Q101   0.0720 
 35 H83      6.7070     3.0970    14.0750 H     1 Q101   0.0490 
 36 H82      6.9380     1.3660    13.6770 H     1 Q101   0.0490 
 37 H81      5.3100     1.9820    14.0230 H     1 Q101   0.0490 
 38 H73      7.8120     0.3240    16.5110 H     1 Q101   0.0490 
 39 H72      8.6000     1.4100    15.3220 H     1 Q101   0.0490 
 40 H71      8.2200     1.9890    16.9680 H     1 Q101   0.0490 
 41 H6       9.4350     9.6970    22.0260 H     1 Q101   0.1940 
 42 H5       7.4750     9.0550    24.3230 H     1 Q101   0.1560 
 43 H3      11.2020     9.0170    23.2780 H     1 Q101   0.1600 
 44 H26      4.7550     4.4550    16.0930 H     1 Q101   0.1600 
 45 H24      6.2900     1.8970    19.2000 H     1 Q101   0.1630 
 46 H21      6.1750     3.7460    20.7800 H     1 Q101   0.1530 
 47 H2      12.8310     7.9810    25.0150 H     1 Q101   0.1720 
 48 H12      6.3520     7.9380    22.4480 H     1 Q101   0.0910 
 49 H1       6.6900     9.5180    19.9950 H     1 Q101   0.4670 
@<TRIPOS>BOND
  1   1   2  am  
  2   1   9  1   
  3   1  49  1   
  4   2  21  2   
  5   2  29  1   
  6   2  30  2   
  7   3  11  1   
  8   3  12  1   
  9   3  19  am  
 10   4   7  1   
 11   4   8  1   
 12   4  18  am  
 13   5  19  2   
 14   6  18  2   
 15   7  38  1   
 16   7  39  1   
 17   7  40  1   
 18   8  35  1   
 19   8  36  1   
 20   8  37  1   
 21   9  10  1   
 22   9  19  1   
 23   9  48  1   
 24  10  11  1   
 25  10  33  1   
 26  10  34  1   
 27  11  31  1   
 28  11  32  1   
 29  12  13  ar  
 30  12  14  ar  
 31  13  15  ar  
 32  13  46  1   
 33  14  16  ar  
 34  14  20  1   
 35  15  17  ar  
 36  15  45  1   
 37  16  17  ar  
 38  16  44  1   
 39  17  18  1   
 40  22  23  1   
 41  23  24  2   
 42  23  25  1   
 43  24  26  1   
 44  24  47  1   
 45  25  27  1   
 46  26  27  2   
 47  26  43  1   
 48  27  28  1   
 49  28  29  2   
 50  28  42  1   
 51  29  41  1   
@<TRIPOS>SUBSTRUCTURE
  1 Q101  19 GROUP 4 **** **** 0

# MOE 2011.10 (io_trps.svl 2011.10)

@<TRIPOS>MOLECULE
FXA101_123
49 51 1 0 0 
SMALL
USER_CHARGES


@<TRIPOS>ATOM
  1 N1       6.8240    10.9940    18.1510 N.am  1 Q101  -0.8960 
  2 S1       5.8710    11.4610    16.9330 S.o2  1 Q101   1.3220 
  3 N2       7.2590     9.4980    21.2230 N.am  1 Q101  -0.3970 
  4 N3      10.6400     7.8400    26.5240 N.am  1 Q101  -0.4840 
  5 O3       7.4630    11.7670    20.8750 O.2   1 Q101  -0.6040 
  6 O4      11.1870     9.9710    26.2160 O.2   1 Q101  -0.6060 
  7 C7       9.3880     7.3280    27.1030 C.3   1 Q101   0.0840 
  8 C8      11.8610     7.0390    26.7100 C.3   1 Q101   0.0840 
  9 C12      6.2420    10.3480    19.3040 C.3   1 Q101   0.1690 
 10 C13      6.2500     8.8180    19.2190 C.3   1 Q101  -0.1080 
 11 C14      6.5920     8.3490    20.6280 C.3   1 Q101   0.1020 
 12 C15      8.0670     9.3930    22.3990 C.ar  1 Q101   0.0330 
 13 C21      9.4400     9.2110    22.3160 C.ar  1 Q101  -0.1060 
 14 C22      7.4920     9.4430    23.6610 C.ar  1 Q101   0.1210 
 15 C24     10.2180     9.0940    23.4500 C.ar  1 Q101  -0.0920 
 16 C26      8.2410     9.3280    24.8210 C.ar  1 Q101  -0.1400 
 17 C27      9.6200     9.1570    24.7000 C.ar  1 Q101  -0.1150 
 18 C28     10.5340     9.0000    25.8700 C.2   1 Q101   0.6760 
 19 C50      7.0620    10.6600    20.5500 C.2   1 Q101   0.6950 
 20 F1       6.1620     9.6090    23.7480 F     1 Q101  -0.1400 
 21 O1       6.7810    11.9230    15.9310 O.2   1 Q101  -0.5930 
 22 CL1      1.7230     4.8130    15.7350 Cl    1 Q101  -0.0550 
 23 C1       1.9890     6.4550    16.2150 C.2   1 Q101   0.0330 
 24 C2       1.1090     7.2710    16.8440 C.2   1 Q101  -0.1460 
 25 S2       3.5110     7.1880    15.8940 S.3   1 Q101   0.0240 
 26 C3       1.6650     8.5320    17.0740 C.2   1 Q101  -0.1130 
 27 C4       2.9700     8.6660    16.6160 C.2   1 Q101  -0.0920 
 28 C5       3.7640     9.8950    16.7380 C.2   1 Q101   0.0810 
 29 C6       5.0240    10.0640    16.3390 C.2   1 Q101  -0.4200 
 30 O2       4.9540    12.3570    17.5790 O.2   1 Q101  -0.5930 
 31 H142     7.2500     7.4740    20.6280 H     1 Q101   0.0600 
 32 H141     5.6870     8.1320    21.2040 H     1 Q101   0.0600 
 33 H132     5.2970     8.4150    18.8640 H     1 Q101   0.0720 
 34 H131     7.0280     8.4830    18.5220 H     1 Q101   0.0720 
 35 H83     12.2800     7.2540    27.6910 H     1 Q101   0.0490 
 36 H82     11.6080     5.9780    26.6270 H     1 Q101   0.0490 
 37 H81     12.5710     7.2940    25.9270 H     1 Q101   0.0490 
 38 H73      8.6940     7.1050    26.2880 H     1 Q101   0.0490 
 39 H72      9.5760     6.4280    27.6940 H     1 Q101   0.0490 
 40 H71      8.9360     8.0960    27.7400 H     1 Q101   0.0490 
 41 H6       5.5560     9.3890    15.6850 H     1 Q101   0.1940 
 42 H5       3.2070    10.7330    17.1560 H     1 Q101   0.1560 
 43 H3       1.1360     9.3340    17.5800 H     1 Q101   0.1600 
 44 H26      7.7590     9.3790    25.7880 H     1 Q101   0.1600 
 45 H24     11.2810     8.9160    23.3530 H     1 Q101   0.1630 
 46 H21      9.9230     9.1450    21.3450 H     1 Q101   0.1530 
 47 H2       0.1080     6.9890    17.1420 H     1 Q101   0.1720 
 48 H12      5.2180    10.6850    19.5060 H     1 Q101   0.0910 
 49 H1       7.6660    11.5530    18.3120 H     1 Q101   0.4670 
@<TRIPOS>BOND
  1   1   2  am  
  2   1   9  1   
  3   1  49  1   
  4   2  21  2   
  5   2  29  1   
  6   2  30  2   
  7   3  11  1   
  8   3  12  1   
  9   3  19  am  
 10   4   7  1   
 11   4   8  1   
 12   4  18  am  
 13   5  19  2   
 14   6  18  2   
 15   7  38  1   
 16   7  39  1   
 17   7  40  1   
 18   8  35  1   
 19   8  36  1   
 20   8  37  1   
 21   9  10  1   
 22   9  19  1   
 23   9  48  1   
 24  10  11  1   
 25  10  33  1   
 26  10  34  1   
 27  11  31  1   
 28  11  32  1   
 29  12  13  ar  
 30  12  14  ar  
 31  13  15  ar  
 32  13  46  1   
 33  14  16  ar  
 34  14  20  1   
 35  15  17  ar  
 36  15  45  1   
 37  16  17  ar  
 38  16  44  1   
 39  17  18  1   
 40  22  23  1   
 41  23  24  2   
 42  23  25  1   
 43  24  26  1   
 44  24  47  1   
 45  25  27  1   
 46  26  27  2   
 47  26  43  1   
 48  27  28  1   
 49  28  29  2   
 50  28  42  1   
 51  29  41  1   
@<TRIPOS>SUBSTRUCTURE
  1 Q101  11 GROUP 4 **** **** 0

# MOE 2011.10 (io_trps.svl 2011.10)

@<TRIPOS>MOLECULE
FXA101_124
49 51 1 0 0 
SMALL
USER_CHARGES


@<TRIPOS>ATOM
  1 N1       3.8940     9.2840    20.5680 N.am  1 Q101  -0.8960 
  2 S1       2.3860     9.6210    20.1000 S.o2  1 Q101   1.3220 
  3 N2       6.0740     8.0760    22.9460 N.am  1 Q101  -0.3970 
  4 N3      11.6890     7.8980    26.2390 N.am  1 Q101  -0.4840 
  5 O3       5.3800    10.2720    22.8580 O.2   1 Q101  -0.6040 
  6 O4      11.1980    10.0630    26.1490 O.2   1 Q101  -0.6060 
  7 C7      11.1820     7.1360    27.3920 C.3   1 Q101   0.0840 
  8 C8      12.9640     7.4710    25.6400 C.3   1 Q101   0.0840 
  9 C12      4.1110     8.4950    21.7590 C.3   1 Q101   0.1690 
 10 C13      4.5620     7.0600    21.4700 C.3   1 Q101  -0.1080 
 11 C14      5.6140     6.7590    22.5310 C.3   1 Q101   0.1020 
 12 C15      7.3020     8.2730    23.6540 C.ar  1 Q101   0.0330 
 13 C21      7.3700     8.1270    25.0320 C.ar  1 Q101  -0.1060 
 14 C22      8.4570     8.6440    22.9810 C.ar  1 Q101   0.1210 
 15 C24      8.5490     8.3330    25.7180 C.ar  1 Q101  -0.0920 
 16 C26      9.6580     8.8600    23.6360 C.ar  1 Q101  -0.1400 
 17 C27      9.6930     8.6940    25.0210 C.ar  1 Q101  -0.1150 
 18 C28     10.9180     8.9150    25.8440 C.2   1 Q101   0.6760 
 19 C50      5.2480     9.0890    22.5820 C.2   1 Q101   0.6950 
 20 F1       8.3950     8.7960    21.6480 F     1 Q101  -0.1400 
 21 O1       1.8750    10.4640    21.1370 O.2   1 Q101  -0.5930 
 22 CL1      3.1070    10.8150    12.0280 Cl    1 Q101  -0.0550 
 23 C1       2.9280    10.9170    13.7470 C.2   1 Q101   0.0330 
 24 C2       2.8000    12.0460    14.4850 C.2   1 Q101  -0.1460 
 25 S2       2.8990     9.4710    14.6760 S.3   1 Q101   0.0240 
 26 C3       2.6800    11.7500    15.8450 C.2   1 Q101  -0.1130 
 27 C4       2.7180    10.3910    16.1320 C.2   1 Q101  -0.0920 
 28 C5       2.6150     9.8320    17.4850 C.2   1 Q101   0.0810 
 29 C6       2.4640    10.5220    18.6160 C.2   1 Q101  -0.4200 
 30 O2       1.8340     8.3180    19.8580 O.2   1 Q101  -0.5930 
 31 H142     6.4430     6.1630    22.1380 H     1 Q101   0.0600 
 32 H141     5.1710     6.2540    23.3960 H     1 Q101   0.0600 
 33 H132     3.7310     6.3490    21.4910 H     1 Q101   0.0720 
 34 H131     5.0190     7.0000    20.4740 H     1 Q101   0.0720 
 35 H83     13.7840     7.8880    26.2190 H     1 Q101   0.0490 
 36 H82     13.0120     6.3780    25.6440 H     1 Q101   0.0490 
 37 H81     13.0040     7.8220    24.6120 H     1 Q101   0.0490 
 38 H73     10.2430     6.6560    27.1050 H     1 Q101   0.0490 
 39 H72     11.9100     6.3840    27.7070 H     1 Q101   0.0490 
 40 H71     10.9800     7.8200    28.2240 H     1 Q101   0.0490 
 41 H6       2.4020    11.5990    18.6730 H     1 Q101   0.1940 
 42 H5       2.6160     8.7430    17.5090 H     1 Q101   0.1560 
 43 H3       2.5500    12.5080    16.6110 H     1 Q101   0.1600 
 44 H26     10.5410     9.1410    23.0770 H     1 Q101   0.1600 
 45 H24      8.5630     8.2470    26.7970 H     1 Q101   0.1630 
 46 H21      6.4800     7.8590    25.5960 H     1 Q101   0.1530 
 47 H2       2.7830    13.0500    14.0820 H     1 Q101   0.1720 
 48 H12      3.2310     8.4640    22.4110 H     1 Q101   0.0910 
 49 H1       4.6100     9.9780    20.3390 H     1 Q101   0.4670 
@<TRIPOS>BOND
  1   1   2  am  
  2   1   9  1   
  3   1  49  1   
  4   2  21  2   
  5   2  29  1   
  6   2  30  2   
  7   3  11  1   
  8   3  12  1   
  9   3  19  am  
 10   4   7  1   
 11   4   8  1   
 12   4  18  am  
 13   5  19  2   
 14   6  18  2   
 15   7  38  1   
 16   7  39  1   
 17   7  40  1   
 18   8  35  1   
 19   8  36  1   
 20   8  37  1   
 21   9  10  1   
 22   9  19  1   
 23   9  48  1   
 24  10  11  1   
 25  10  33  1   
 26  10  34  1   
 27  11  31  1   
 28  11  32  1   
 29  12  13  ar  
 30  12  14  ar  
 31  13  15  ar  
 32  13  46  1   
 33  14  16  ar  
 34  14  20  1   
 35  15  17  ar  
 36  15  45  1   
 37  16  17  ar  
 38  16  44  1   
 39  17  18  1   
 40  22  23  1   
 41  23  24  2   
 42  23  25  1   
 43  24  26  1   
 44  24  47  1   
 45  25  27  1   
 46  26  27  2   
 47  26  43  1   
 48  27  28  1   
 49  28  29  2   
 50  28  42  1   
 51  29  41  1   
@<TRIPOS>SUBSTRUCTURE
  1 Q101  19 GROUP 4 **** **** 0

# MOE 2011.10 (io_trps.svl 2011.10)

@<TRIPOS>MOLECULE
FXA101_125
49 51 1 0 0 
SMALL
USER_CHARGES


@<TRIPOS>ATOM
  1 N1       6.9900    10.3090    17.7860 N.am  1 Q101  -0.8960 
  2 S1       6.0780    10.6900    16.5080 S.o2  1 Q101   1.3220 
  3 N2       7.3080     9.1300    21.0070 N.am  1 Q101  -0.3970 
  4 N3      10.7930     7.8990    26.3470 N.am  1 Q101  -0.4840 
  5 O3       7.5760    11.3460    20.4340 O.2   1 Q101  -0.6040 
  6 O4      10.8680    10.1160    26.2050 O.2   1 Q101  -0.6060 
  7 C7       9.7140     7.2360    27.0960 C.3   1 Q101   0.0840 
  8 C8      12.1080     7.2390    26.3050 C.3   1 Q101   0.0840 
  9 C12      6.3620     9.7980    18.9820 C.3   1 Q101   0.1690 
 10 C13      6.3350     8.2680    19.0540 C.3   1 Q101  -0.1080 
 11 C14      6.6280     7.9400    20.5140 C.3   1 Q101   0.1020 
 12 C15      8.0810     9.1300    22.2100 C.ar  1 Q101   0.0330 
 13 C21      9.4680     9.0870    22.1750 C.ar  1 Q101  -0.1060 
 14 C22      7.4620     9.1440    23.4510 C.ar  1 Q101   0.1210 
 15 C24     10.2150     9.0700    23.3350 C.ar  1 Q101  -0.0920 
 16 C26      8.1790     9.1270    24.6370 C.ar  1 Q101  -0.1400 
 17 C27      9.5720     9.0950    24.5630 C.ar  1 Q101  -0.1150 
 18 C28     10.4570     9.0540    25.7650 C.2   1 Q101   0.6760 
 19 C50      7.1560    10.2190    20.2130 C.2   1 Q101   0.6950 
 20 F1       6.1200     9.1750    23.4920 F     1 Q101  -0.1400 
 21 O1       5.1360     9.6170    16.4160 O.2   1 Q101  -0.5930 
 22 CL1      2.3850    17.6920    17.3020 Cl    1 Q101  -0.0550 
 23 C1       3.1430    16.3770    16.4700 C.2   1 Q101   0.0330 
 24 C2       3.3400    16.2670    15.1340 C.2   1 Q101  -0.1460 
 25 S2       3.7340    15.0390    17.3730 S.3   1 Q101   0.0240 
 26 C3       3.9820    15.0670    14.8150 C.2   1 Q101  -0.1130 
 27 C4       4.2690    14.2700    15.9170 C.2   1 Q101  -0.0920 
 28 C5       4.9350    12.9650    15.8380 C.2   1 Q101   0.0810 
 29 C6       5.2330    12.1670    16.8620 C.2   1 Q101  -0.4200 
 30 O2       7.0560    10.9140    15.4810 O.2   1 Q101  -0.5930 
 31 H142     7.2640     7.0560    20.6220 H     1 Q101   0.0600 
 32 H141     5.7030     7.8030    21.0840 H     1 Q101   0.0600 
 33 H132     5.3820     7.8510    18.7160 H     1 Q101   0.0720 
 34 H131     7.1230     7.8460    18.4190 H     1 Q101   0.0720 
 35 H83     12.6530     7.4780    27.2150 H     1 Q101   0.0490 
 36 H82     11.9620     6.1580    26.2210 H     1 Q101   0.0490 
 37 H81     12.6500     7.5910    25.4310 H     1 Q101   0.0490 
 38 H73      8.9260     6.9540    26.3920 H     1 Q101   0.0490 
 39 H72     10.0920     6.3510    27.6130 H     1 Q101   0.0490 
 40 H71      9.2900     7.9330    27.8260 H     1 Q101   0.0490 
 41 H6       4.9970    12.3800    17.8950 H     1 Q101   0.1940 
 42 H5       5.1390    12.6410    14.8180 H     1 Q101   0.1560 
 43 H3       4.2500    14.7850    13.8020 H     1 Q101   0.1600 
 44 H26      7.6620     9.1470    25.5870 H     1 Q101   0.1600 
 45 H24     11.2930     9.0010    23.2760 H     1 Q101   0.1630 
 46 H21      9.9880     9.0520    21.2200 H     1 Q101   0.1530 
 47 H2       3.0510    17.0090    14.4020 H     1 Q101   0.1720 
 48 H12      5.3420    10.1760    19.1190 H     1 Q101   0.0910 
 49 H1       7.8490    10.8510    17.9120 H     1 Q101   0.4670 
@<TRIPOS>BOND
  1   1   2  am  
  2   1   9  1   
  3   1  49  1   
  4   2  21  2   
  5   2  29  1   
  6   2  30  2   
  7   3  11  1   
  8   3  12  1   
  9   3  19  am  
 10   4   7  1   
 11   4   8  1   
 12   4  18  am  
 13   5  19  2   
 14   6  18  2   
 15   7  38  1   
 16   7  39  1   
 17   7  40  1   
 18   8  35  1   
 19   8  36  1   
 20   8  37  1   
 21   9  10  1   
 22   9  19  1   
 23   9  48  1   
 24  10  11  1   
 25  10  33  1   
 26  10  34  1   
 27  11  31  1   
 28  11  32  1   
 29  12  13  ar  
 30  12  14  ar  
 31  13  15  ar  
 32  13  46  1   
 33  14  16  ar  
 34  14  20  1   
 35  15  17  ar  
 36  15  45  1   
 37  16  17  ar  
 38  16  44  1   
 39  17  18  1   
 40  22  23  1   
 41  23  24  2   
 42  23  25  1   
 43  24  26  1   
 44  24  47  1   
 45  25  27  1   
 46  26  27  2   
 47  26  43  1   
 48  27  28  1   
 49  28  29  2   
 50  28  42  1   
 51  29  41  1   
@<TRIPOS>SUBSTRUCTURE
  1 Q101  19 GROUP 4 **** **** 0

# MOE 2011.10 (io_trps.svl 2011.10)

@<TRIPOS>MOLECULE
FXA101_126
49 51 1 0 0 
SMALL
USER_CHARGES


@<TRIPOS>ATOM
  1 N1       3.6370    12.7450    15.3040 N.am  1 Q101  -0.8960 
  2 S1       4.0080    13.1800    13.7930 S.o2  1 Q101   1.3220 
  3 N2       4.6480    11.8440    18.4710 N.am  1 Q101  -0.3970 
  4 N3       4.9010     8.2110    23.8790 N.am  1 Q101  -0.4840 
  5 O3       4.4150    10.3430    16.7380 O.2   1 Q101  -0.6040 
  6 O4       2.9910     7.6130    22.9110 O.2   1 Q101  -0.6060 
  7 C7       5.3070     6.8510    24.2670 C.3   1 Q101   0.0840 
  8 C8       5.5020     9.3420    24.6040 C.3   1 Q101   0.0840 
  9 C12      4.6660    12.7380    16.3170 C.3   1 Q101   0.1690 
 10 C13      4.5430    13.8860    17.3240 C.3   1 Q101  -0.1080 
 11 C14      4.8930    13.2650    18.6710 C.3   1 Q101   0.1020 
 12 C15      4.4960    10.9300    19.5610 C.ar  1 Q101   0.0330 
 13 C21      3.4150    11.0150    20.4270 C.ar  1 Q101  -0.1060 
 14 C22      5.4450     9.9460    19.7990 C.ar  1 Q101   0.1210 
 15 C24      3.2760    10.1440    21.4890 C.ar  1 Q101  -0.0920 
 16 C26      5.3390     9.0550    20.8550 C.ar  1 Q101  -0.1400 
 17 C27      4.2330     9.1630    21.6990 C.ar  1 Q101  -0.1150 
 18 C28      4.0140     8.2780    22.8820 C.2   1 Q101   0.6760 
 19 C50      4.5570    11.4780    17.1680 C.2   1 Q101   0.6950 
 20 F1       6.4980     9.8650    18.9700 F     1 Q101  -0.1400 
 21 O1       5.1480    12.3790    13.4660 O.2   1 Q101  -0.5930 
 22 CL1      5.5380    15.0190     7.2430 Cl    1 Q101  -0.0550 
 23 C1       4.6960    14.6140     8.7010 C.2   1 Q101   0.0330 
 24 C2       4.2660    15.4730     9.6560 C.2   1 Q101  -0.1460 
 25 S2       4.3320    12.9660     9.0320 S.3   1 Q101   0.0240 
 26 C3       3.6260    14.7940    10.6960 C.2   1 Q101  -0.1130 
 27 C4       3.5750    13.4160    10.5230 C.2   1 Q101  -0.0920 
 28 C5       2.9600    12.4880    11.4790 C.2   1 Q101   0.0810 
 29 C6       2.6830    12.7410    12.7580 C.2   1 Q101  -0.4200 
 30 O2       4.1040    14.6090    13.8940 O.2   1 Q101  -0.5930 
 31 H142     4.2730    13.6560    19.4830 H     1 Q101   0.0600 
 32 H141     5.9520    13.4080    18.9110 H     1 Q101   0.0600 
 33 H132     5.1900    14.7320    17.0730 H     1 Q101   0.0720 
 34 H131     3.5110    14.2580    17.3490 H     1 Q101   0.0720 
 35 H83      4.9600     9.4940    25.5350 H     1 Q101   0.0490 
 36 H82      6.5530     9.1170    24.8080 H     1 Q101   0.0490 
 37 H81      5.4460    10.2300    23.9790 H     1 Q101   0.0490 
 38 H73      5.8270     6.3900    23.4230 H     1 Q101   0.0490 
 39 H72      5.9600     6.8800    25.1430 H     1 Q101   0.0490 
 40 H71      4.4180     6.2520    24.4920 H     1 Q101   0.0490 
 41 H6       1.6930    12.7050    13.1900 H     1 Q101   0.1940 
 42 H5       2.6760    11.5330    11.0390 H     1 Q101   0.1560 
 43 H3       3.1920    15.2930    11.5560 H     1 Q101   0.1600 
 44 H26      6.0950     8.2960    21.0050 H     1 Q101   0.1600 
 45 H24      2.4420    10.2580    22.1680 H     1 Q101   0.1630 
 46 H21      2.6630    11.7870    20.2850 H     1 Q101   0.1530 
 47 H2       4.3880    16.5470     9.6220 H     1 Q101   0.1720 
 48 H12      5.6770    12.7470    15.8920 H     1 Q101   0.0910 
 49 H1       2.8810    12.0620    15.4100 H     1 Q101   0.4670 
@<TRIPOS>BOND
  1   1   2  am  
  2   1   9  1   
  3   1  49  1   
  4   2  21  2   
  5   2  29  1   
  6   2  30  2   
  7   3  11  1   
  8   3  12  1   
  9   3  19  am  
 10   4   7  1   
 11   4   8  1   
 12   4  18  am  
 13   5  19  2   
 14   6  18  2   
 15   7  38  1   
 16   7  39  1   
 17   7  40  1   
 18   8  35  1   
 19   8  36  1   
 20   8  37  1   
 21   9  10  1   
 22   9  19  1   
 23   9  48  1   
 24  10  11  1   
 25  10  33  1   
 26  10  34  1   
 27  11  31  1   
 28  11  32  1   
 29  12  13  ar  
 30  12  14  ar  
 31  13  15  ar  
 32  13  46  1   
 33  14  16  ar  
 34  14  20  1   
 35  15  17  ar  
 36  15  45  1   
 37  16  17  ar  
 38  16  44  1   
 39  17  18  1   
 40  22  23  1   
 41  23  24  2   
 42  23  25  1   
 43  24  26  1   
 44  24  47  1   
 45  25  27  1   
 46  26  27  2   
 47  26  43  1   
 48  27  28  1   
 49  28  29  2   
 50  28  42  1   
 51  29  41  1   
@<TRIPOS>SUBSTRUCTURE
  1 Q101  19 GROUP 4 **** **** 0

# MOE 2011.10 (io_trps.svl 2011.10)

@<TRIPOS>MOLECULE
FXA101_127
49 51 1 0 0 
SMALL
USER_CHARGES


@<TRIPOS>ATOM
  1 N1       0.8710     5.9820    15.2770 N.am  1 Q101  -0.8960 
  2 S1      -0.5420     5.6990    14.5480 S.o2  1 Q101   1.3220 
  3 N2       2.4550     6.8190    18.2200 N.am  1 Q101  -0.3970 
  4 N3       6.7030    10.6640    21.3800 N.am  1 Q101  -0.4840 
  5 O3       1.0460     8.2470    17.0850 O.2   1 Q101  -0.6040 
  6 O4       4.7550    11.7290    21.4890 O.2   1 Q101  -0.6060 
  7 C7       7.0340    10.6500    22.8140 C.3   1 Q101   0.0840 
  8 C8       7.8110    10.5540    20.4170 C.3   1 Q101   0.0840 
  9 C12      0.9760     5.8320    16.7100 C.3   1 Q101   0.1690 
 10 C13      2.0060     4.7840    17.1440 C.3   1 Q101  -0.1080 
 11 C14      2.6910     5.3900    18.3640 C.3   1 Q101   0.1020 
 12 C15      3.2160     7.7990    18.9320 C.ar  1 Q101   0.0330 
 13 C21      2.8780     8.1740    20.2240 C.ar  1 Q101  -0.1060 
 14 C22      4.3020     8.4230    18.3370 C.ar  1 Q101   0.1210 
 15 C24      3.6010     9.1310    20.9070 C.ar  1 Q101  -0.0920 
 16 C26      5.0520     9.3890    18.9900 C.ar  1 Q101  -0.1400 
 17 C27      4.6890     9.7330    20.2930 C.ar  1 Q101  -0.1150 
 18 C28      5.4020    10.7710    21.0960 C.2   1 Q101   0.6760 
 19 C50      1.4710     7.1300    17.3390 C.2   1 Q101   0.6950 
 20 F1       4.6290     8.0710    17.0830 F     1 Q101  -0.1400 
 21 O1      -0.7800     4.3060    14.7700 O.2   1 Q101  -0.5930 
 22 CL1     -5.2320     6.3710     9.7310 Cl    1 Q101  -0.0550 
 23 C1      -4.3980     6.2340    11.2420 C.2   1 Q101   0.0330 
 24 C2      -3.9710     5.0920    11.8330 C.2   1 Q101  -0.1460 
 25 S2      -4.0370     7.6580    12.1350 S.3   1 Q101   0.0240 
 26 C3      -3.3380     5.3600    13.0500 C.2   1 Q101  -0.1130 
 27 C4      -3.2870     6.7100    13.3750 C.2   1 Q101  -0.0920 
 28 C5      -2.6770     7.2390    14.6000 C.2   1 Q101   0.0810 
 29 C6      -1.7680     6.6260    15.3590 C.2   1 Q101  -0.4200 
 30 O2      -0.3220     6.2180    13.2270 O.2   1 Q101  -0.5930 
 31 H142     3.7630     5.1730    18.3900 H     1 Q101   0.0600 
 32 H141     2.2210     5.0490    19.2920 H     1 Q101   0.0600 
 33 H132     1.5490     3.8140    17.3590 H     1 Q101   0.0720 
 34 H131     2.7460     4.6300    16.3480 H     1 Q101   0.0720 
 35 H83      8.2570    11.5360    20.2780 H     1 Q101   0.0490 
 36 H82      8.5520     9.8500    20.8050 H     1 Q101   0.0490 
 37 H81      7.4220    10.1740    19.4760 H     1 Q101   0.0490 
 38 H73      6.5940     9.7550    23.2620 H     1 Q101   0.0490 
 39 H72      8.1170    10.6520    22.9590 H     1 Q101   0.0490 
 40 H71      6.5980    11.5290    23.3000 H     1 Q101   0.0490 
 41 H6      -1.7350     6.6760    16.4380 H     1 Q101   0.1940 
 42 H5      -2.9930     8.2530    14.8420 H     1 Q101   0.1560 
 43 H3      -2.9070     4.5880    13.6800 H     1 Q101   0.1600 
 44 H26      5.8970     9.8490    18.4960 H     1 Q101   0.1600 
 45 H24      3.2910     9.4290    21.9000 H     1 Q101   0.1630 
 46 H21      2.0190     7.7230    20.7160 H     1 Q101   0.1530 
 47 H2      -4.0930     4.0990    11.4220 H     1 Q101   0.1720 
 48 H12      0.0140     5.5990    17.1820 H     1 Q101   0.0910 
 49 H1       1.4780     6.6810    14.8420 H     1 Q101   0.4670 
@<TRIPOS>BOND
  1   1   2  am  
  2   1   9  1   
  3   1  49  1   
  4   2  21  2   
  5   2  29  1   
  6   2  30  2   
  7   3  11  1   
  8   3  12  1   
  9   3  19  am  
 10   4   7  1   
 11   4   8  1   
 12   4  18  am  
 13   5  19  2   
 14   6  18  2   
 15   7  38  1   
 16   7  39  1   
 17   7  40  1   
 18   8  35  1   
 19   8  36  1   
 20   8  37  1   
 21   9  10  1   
 22   9  19  1   
 23   9  48  1   
 24  10  11  1   
 25  10  33  1   
 26  10  34  1   
 27  11  31  1   
 28  11  32  1   
 29  12  13  ar  
 30  12  14  ar  
 31  13  15  ar  
 32  13  46  1   
 33  14  16  ar  
 34  14  20  1   
 35  15  17  ar  
 36  15  45  1   
 37  16  17  ar  
 38  16  44  1   
 39  17  18  1   
 40  22  23  1   
 41  23  24  2   
 42  23  25  1   
 43  24  26  1   
 44  24  47  1   
 45  25  27  1   
 46  26  27  2   
 47  26  43  1   
 48  27  28  1   
 49  28  29  2   
 50  28  42  1   
 51  29  41  1   
@<TRIPOS>SUBSTRUCTURE
  1 Q101  19 GROUP 4 **** **** 0

# MOE 2011.10 (io_trps.svl 2011.10)

@<TRIPOS>MOLECULE
FXA101_128
49 51 1 0 0 
SMALL
USER_CHARGES


@<TRIPOS>ATOM
  1 N1       6.0620    11.5710    15.5970 N.am  1 Q101  -0.8960 
  2 S1       5.2160    12.4320    14.5240 S.o2  1 Q101   1.3220 
  3 N2       6.1780    10.0870    18.7040 N.am  1 Q101  -0.3970 
  4 N3       8.6380     8.8630    24.6150 N.am  1 Q101  -0.4840 
  5 O3       6.3190    12.3640    18.3780 O.2   1 Q101  -0.6040 
  6 O4       9.4130    10.8850    24.1140 O.2   1 Q101  -0.6060 
  7 C7       9.7360     8.6840    25.5780 C.3   1 Q101   0.0840 
  8 C8       7.5180     7.9090    24.6640 C.3   1 Q101   0.0840 
  9 C12      5.3700    10.8940    16.6700 C.3   1 Q101   0.1690 
 10 C13      5.4600     9.3670    16.5900 C.3   1 Q101  -0.1080 
 11 C14      5.6450     8.9100    18.0330 C.3   1 Q101   0.1020 
 12 C15      6.8370    10.0160    19.9720 C.ar  1 Q101   0.0330 
 13 C21      6.2240    10.4760    21.1280 C.ar  1 Q101  -0.1060 
 14 C22      8.1240     9.5080    20.0750 C.ar  1 Q101   0.1210 
 15 C24      6.8640    10.4230    22.3500 C.ar  1 Q101  -0.0920 
 16 C26      8.7990     9.4400    21.2830 C.ar  1 Q101  -0.1400 
 17 C27      8.1470     9.9010    22.4280 C.ar  1 Q101  -0.1150 
 18 C28      8.7720     9.9010    23.7840 C.2   1 Q101   0.6760 
 19 C50      6.0130    11.2400    18.0080 C.2   1 Q101   0.6950 
 20 F1       8.7260     9.0700    18.9570 F     1 Q101  -0.1400 
 21 O1       6.1670    12.7580    13.5060 O.2   1 Q101  -0.5930 
 22 CL1     -0.5760    10.0640     9.2360 Cl    1 Q101  -0.0550 
 23 C1       0.5460    10.2790    10.5380 C.2   1 Q101   0.0330 
 24 C2       0.6860     9.4860    11.6280 C.2   1 Q101  -0.1460 
 25 S2       1.6260    11.6160    10.5060 S.3   1 Q101   0.0240 
 26 C3       1.6890     9.9660    12.4750 C.2   1 Q101  -0.1130 
 27 C4       2.3070    11.1250    12.0200 C.2   1 Q101  -0.0920 
 28 C5       3.3840    11.8180    12.7350 C.2   1 Q101   0.0810 
 29 C6       3.9850    11.4060    13.8500 C.2   1 Q101  -0.4200 
 30 O2       4.6180    13.4510    15.3400 O.2   1 Q101  -0.5930 
 31 H142     6.3380     8.0670    18.1170 H     1 Q101   0.0600 
 32 H141     4.6860     8.6490    18.4920 H     1 Q101   0.0600 
 33 H132     4.5790     8.9220    16.1200 H     1 Q101   0.0720 
 34 H131     6.3340     9.0700    15.9970 H     1 Q101   0.0720 
 35 H83      7.7940     7.0120    24.1140 H     1 Q101   0.0490 
 36 H82      7.3020     7.6650    25.7080 H     1 Q101   0.0490 
 37 H81      6.6410     8.3740    24.2220 H     1 Q101   0.0490 
 38 H73      9.7590     9.5510    26.2440 H     1 Q101   0.0490 
 39 H72      9.5960     7.7670    26.1560 H     1 Q101   0.0490 
 40 H71     10.6900     8.6360    25.0420 H     1 Q101   0.0490 
 41 H6       3.7520    10.4880    14.3700 H     1 Q101   0.1940 
 42 H5       3.7230    12.7270    12.2380 H     1 Q101   0.1560 
 43 H3       1.9770     9.4720    13.3980 H     1 Q101   0.1600 
 44 H26      9.7990     9.0300    21.3270 H     1 Q101   0.1600 
 45 H24      6.3750    10.8220    23.2280 H     1 Q101   0.1630 
 46 H21      5.2240    10.9010    21.0830 H     1 Q101   0.1530 
 47 H2       0.1090     8.5930    11.8220 H     1 Q101   0.1720 
 48 H12      4.3150    11.1830    16.7420 H     1 Q101   0.0910 
 49 H1       7.0130    11.8920    15.7920 H     1 Q101   0.4670 
@<TRIPOS>BOND
  1   1   2  am  
  2   1   9  1   
  3   1  49  1   
  4   2  21  2   
  5   2  29  1   
  6   2  30  2   
  7   3  11  1   
  8   3  12  1   
  9   3  19  am  
 10   4   7  1   
 11   4   8  1   
 12   4  18  am  
 13   5  19  2   
 14   6  18  2   
 15   7  38  1   
 16   7  39  1   
 17   7  40  1   
 18   8  35  1   
 19   8  36  1   
 20   8  37  1   
 21   9  10  1   
 22   9  19  1   
 23   9  48  1   
 24  10  11  1   
 25  10  33  1   
 26  10  34  1   
 27  11  31  1   
 28  11  32  1   
 29  12  13  ar  
 30  12  14  ar  
 31  13  15  ar  
 32  13  46  1   
 33  14  16  ar  
 34  14  20  1   
 35  15  17  ar  
 36  15  45  1   
 37  16  17  ar  
 38  16  44  1   
 39  17  18  1   
 40  22  23  1   
 41  23  24  2   
 42  23  25  1   
 43  24  26  1   
 44  24  47  1   
 45  25  27  1   
 46  26  27  2   
 47  26  43  1   
 48  27  28  1   
 49  28  29  2   
 50  28  42  1   
 51  29  41  1   
@<TRIPOS>SUBSTRUCTURE
  1 Q101  19 GROUP 4 **** **** 0

# MOE 2011.10 (io_trps.svl 2011.10)

@<TRIPOS>MOLECULE
FXA101_129
49 51 1 0 0 
SMALL
USER_CHARGES


@<TRIPOS>ATOM
  1 N1       6.2920     9.5960    19.8030 N.am  1 Q101  -0.8960 
  2 S1       6.7820    10.6240    20.9480 S.o2  1 Q101   1.3220 
  3 N2       5.0530     6.4910    18.9700 N.am  1 Q101  -0.3970 
  4 N3       6.9970     1.2360    15.6650 N.am  1 Q101  -0.4840 
  5 O3       7.2680     6.8810    19.4730 O.2   1 Q101  -0.6040 
  6 O4       4.7800     1.1140    15.5700 O.2   1 Q101  -0.6060 
  7 C7       8.1100     1.9660    16.2930 C.3   1 Q101   0.0840 
  8 C8       7.3230     0.0650    14.8340 C.3   1 Q101   0.0840 
  9 C12      5.5160     8.4350    20.1730 C.3   1 Q101   0.1690 
 10 C13      4.0620     8.4910    19.6910 C.3   1 Q101  -0.1080 
 11 C14      3.7450     7.0690    19.2410 C.3   1 Q101   0.1020 
 12 C15      5.2220     5.3060    18.1870 C.ar  1 Q101   0.0330 
 13 C21      5.0330     4.0460    18.7360 C.ar  1 Q101  -0.1060 
 14 C22      5.6090     5.3840    16.8570 C.ar  1 Q101   0.1210 
 15 C24      5.2110     2.9010    17.9860 C.ar  1 Q101  -0.0920 
 16 C26      5.7990     4.2580    16.0730 C.ar  1 Q101  -0.1400 
 17 C27      5.5880     3.0070    16.6560 C.ar  1 Q101  -0.1150 
 18 C28      5.7780     1.7190    15.9260 C.2   1 Q101   0.6760 
 19 C50      6.0860     7.1880    19.5080 C.2   1 Q101   0.6950 
 20 F1       5.8030     6.6010    16.3220 F     1 Q101  -0.1400 
 21 O1       5.5700    11.1860    21.4580 O.2   1 Q101  -0.5930 
 22 CL1     10.8890     7.1420    26.8080 Cl    1 Q101  -0.0550 
 23 C1      10.4100     8.4140    25.7350 C.2   1 Q101   0.0330 
 24 C2      10.9520     9.6520    25.6500 C.2   1 Q101  -0.1460 
 25 S2       9.1200     8.1410    24.6310 S.3   1 Q101   0.0240 
 26 C3      10.3120    10.4180    24.6720 C.2   1 Q101  -0.1130 
 27 C4       9.2820     9.7520    24.0170 C.2   1 Q101  -0.0920 
 28 C5       8.4610    10.3460    22.9560 C.2   1 Q101   0.0810 
 29 C6       7.5640     9.7110    22.2030 C.2   1 Q101  -0.4200 
 30 O2       7.7440    11.4320    20.2520 O.2   1 Q101  -0.5930 
 31 H142     3.1170     7.0470    18.3450 H     1 Q101   0.0600 
 32 H141     3.2670     6.4970    20.0430 H     1 Q101   0.0600 
 33 H132     3.3790     8.8460    20.4670 H     1 Q101   0.0720 
 34 H131     3.9730     9.1740    18.8370 H     1 Q101   0.0720 
 35 H83      7.6030     0.4040    13.8390 H     1 Q101   0.0490 
 36 H82      8.1500    -0.4810    15.2970 H     1 Q101   0.0490 
 37 H81      6.4540    -0.5850    14.7860 H     1 Q101   0.0490 
 38 H73      8.0180     1.8710    17.3780 H     1 Q101   0.0490 
 39 H72      9.0700     1.5650    15.9580 H     1 Q101   0.0490 
 40 H71      8.0460     3.0280    16.0330 H     1 Q101   0.0490 
 41 H6       7.3010     8.6690    22.3100 H     1 Q101   0.1940 
 42 H5       8.6000    11.4210    22.8480 H     1 Q101   0.1560 
 43 H3      10.6000    11.4360    24.4280 H     1 Q101   0.1600 
 44 H26      6.0930     4.3580    15.0370 H     1 Q101   0.1600 
 45 H24      5.0910     1.9320    18.4520 H     1 Q101   0.1630 
 46 H21      4.7510     3.9440    19.7820 H     1 Q101   0.1530 
 47 H2      11.7790    10.0090    26.2490 H     1 Q101   0.1720 
 48 H12      5.5230     8.2490    21.2530 H     1 Q101   0.0910 
 49 H1       6.8970     9.5020    18.9830 H     1 Q101   0.4670 
@<TRIPOS>BOND
  1   1   2  am  
  2   1   9  1   
  3   1  49  1   
  4   2  21  2   
  5   2  29  1   
  6   2  30  2   
  7   3  11  1   
  8   3  12  1   
  9   3  19  am  
 10   4   7  1   
 11   4   8  1   
 12   4  18  am  
 13   5  19  2   
 14   6  18  2   
 15   7  38  1   
 16   7  39  1   
 17   7  40  1   
 18   8  35  1   
 19   8  36  1   
 20   8  37  1   
 21   9  10  1   
 22   9  19  1   
 23   9  48  1   
 24  10  11  1   
 25  10  33  1   
 26  10  34  1   
 27  11  31  1   
 28  11  32  1   
 29  12  13  ar  
 30  12  14  ar  
 31  13  15  ar  
 32  13  46  1   
 33  14  16  ar  
 34  14  20  1   
 35  15  17  ar  
 36  15  45  1   
 37  16  17  ar  
 38  16  44  1   
 39  17  18  1   
 40  22  23  1   
 41  23  24  2   
 42  23  25  1   
 43  24  26  1   
 44  24  47  1   
 45  25  27  1   
 46  26  27  2   
 47  26  43  1   
 48  27  28  1   
 49  28  29  2   
 50  28  42  1   
 51  29  41  1   
@<TRIPOS>SUBSTRUCTURE
  1 Q101   5 GROUP 4 **** **** 0

# MOE 2011.10 (io_trps.svl 2011.10)

@<TRIPOS>MOLECULE
FXA101_130
49 51 1 0 0 
SMALL
USER_CHARGES


@<TRIPOS>ATOM
  1 N1       6.6330    10.1910    20.7130 N.am  1 Q101  -0.8960 
  2 S1       7.1120    10.8610    22.1020 S.o2  1 Q101   1.3220 
  3 N2       5.5540     7.4630    18.9070 N.am  1 Q101  -0.3970 
  4 N3       4.5140     3.8240    13.5860 N.am  1 Q101  -0.4840 
  5 O3       7.6550     8.3840    18.6840 O.2   1 Q101  -0.6040 
  6 O4       5.5000     5.6640    12.8240 O.2   1 Q101  -0.6060 
  7 C7       5.0180     3.0540    12.4380 C.3   1 Q101   0.0840 
  8 C8       3.4510     3.2190    14.4060 C.3   1 Q101   0.0840 
  9 C12      6.2990     8.7860    20.6770 C.3   1 Q101   0.1690 
 10 C13      4.8050     8.5060    20.8690 C.3   1 Q101  -0.1080 
 11 C14      4.4910     7.3740    19.8970 C.3   1 Q101   0.1020 
 12 C15      5.4620     6.8390    17.6230 C.ar  1 Q101   0.0330 
 13 C21      4.9610     7.5220    16.5240 C.ar  1 Q101  -0.1060 
 14 C22      5.8470     5.5180    17.4480 C.ar  1 Q101   0.1210 
 15 C24      4.8560     6.9160    15.2880 C.ar  1 Q101  -0.0920 
 16 C26      5.7550     4.8750    16.2240 C.ar  1 Q101  -0.1400 
 17 C27      5.2580     5.5960    15.1380 C.ar  1 Q101  -0.1150 
 18 C28      5.0900     5.0140    13.7730 C.2   1 Q101   0.6760 
 19 C50      6.6180     8.2050    19.3050 C.2   1 Q101   0.6950 
 20 F1       6.3230     4.8480    18.5100 F     1 Q101  -0.1400 
 21 O1       6.0010    10.6750    22.9850 O.2   1 Q101  -0.5930 
 22 CL1     11.4940     6.8560    27.7110 Cl    1 Q101  -0.0550 
 23 C1      10.8660     7.6760    26.3220 C.2   1 Q101   0.0330 
 24 C2      11.5770     8.1680    25.2780 C.2   1 Q101  -0.1460 
 25 S2       9.1700     7.9230    26.1860 S.3   1 Q101   0.0240 
 26 C3      10.7400     8.7710    24.3360 C.2   1 Q101  -0.1130 
 27 C4       9.3920     8.7330    24.6720 C.2   1 Q101  -0.0920 
 28 C5       8.3210     9.3020    23.8460 C.2   1 Q101   0.0810 
 29 C6       8.4750     9.9630    22.6980 C.2   1 Q101  -0.4200 
 30 O2       7.5260    12.1730    21.6910 O.2   1 Q101  -0.5930 
 31 H142     3.5100     7.4900    19.4270 H     1 Q101   0.0600 
 32 H141     4.5530     6.3990    20.3910 H     1 Q101   0.0600 
 33 H132     4.5580     8.2490    21.9040 H     1 Q101   0.0720 
 34 H131     4.2160     9.3920    20.6020 H     1 Q101   0.0720 
 35 H83      2.4910     3.3920    13.9260 H     1 Q101   0.0490 
 36 H82      3.6410     2.1460    14.5010 H     1 Q101   0.0490 
 37 H81      3.4710     3.6690    15.3950 H     1 Q101   0.0490 
 38 H73      6.0680     2.8100    12.6180 H     1 Q101   0.0490 
 39 H72      4.4350     2.1400    12.3010 H     1 Q101   0.0490 
 40 H71      4.9570     3.6650    11.5310 H     1 Q101   0.0490 
 41 H6       9.3890     9.9890    22.1240 H     1 Q101   0.1940 
 42 H5       7.3210     9.0940    24.2240 H     1 Q101   0.1560 
 43 H3      11.1020     9.2160    23.4140 H     1 Q101   0.1600 
 44 H26      6.0720     3.8460    16.1230 H     1 Q101   0.1600 
 45 H24      4.4290     7.4620    14.4590 H     1 Q101   0.1630 
 46 H21      4.6290     8.5520    16.6280 H     1 Q101   0.1530 
 47 H2      12.6510     8.1000    25.1750 H     1 Q101   0.1720 
 48 H12      6.8660     8.1980    21.4090 H     1 Q101   0.0910 
 49 H1       7.0160    10.5960    19.8540 H     1 Q101   0.4670 
@<TRIPOS>BOND
  1   1   2  am  
  2   1   9  1   
  3   1  49  1   
  4   2  21  2   
  5   2  29  1   
  6   2  30  2   
  7   3  11  1   
  8   3  12  1   
  9   3  19  am  
 10   4   7  1   
 11   4   8  1   
 12   4  18  am  
 13   5  19  2   
 14   6  18  2   
 15   7  38  1   
 16   7  39  1   
 17   7  40  1   
 18   8  35  1   
 19   8  36  1   
 20   8  37  1   
 21   9  10  1   
 22   9  19  1   
 23   9  48  1   
 24  10  11  1   
 25  10  33  1   
 26  10  34  1   
 27  11  31  1   
 28  11  32  1   
 29  12  13  ar  
 30  12  14  ar  
 31  13  15  ar  
 32  13  46  1   
 33  14  16  ar  
 34  14  20  1   
 35  15  17  ar  
 36  15  45  1   
 37  16  17  ar  
 38  16  44  1   
 39  17  18  1   
 40  22  23  1   
 41  23  24  2   
 42  23  25  1   
 43  24  26  1   
 44  24  47  1   
 45  25  27  1   
 46  26  27  2   
 47  26  43  1   
 48  27  28  1   
 49  28  29  2   
 50  28  42  1   
 51  29  41  1   
@<TRIPOS>SUBSTRUCTURE
  1 Q101  19 GROUP 4 **** **** 0

# MOE 2011.10 (io_trps.svl 2011.10)

@<TRIPOS>MOLECULE
FXA101_131
49 51 1 0 0 
SMALL
USER_CHARGES


@<TRIPOS>ATOM
  1 N1       5.0160     8.2130    22.5990 N.am  1 Q101  -0.8960 
  2 S1       4.8710     8.3430    24.2020 S.o2  1 Q101   1.3220 
  3 N2       3.2660     8.0030    19.6390 N.am  1 Q101  -0.3970 
  4 N3       2.7720     9.6230    13.3340 N.am  1 Q101  -0.4840 
  5 O3       5.4010     7.1800    19.9140 O.2   1 Q101  -0.6040 
  6 O4       3.8980     7.7070    13.3340 O.2   1 Q101  -0.6060 
  7 C7       3.0720     9.7300    11.8970 C.3   1 Q101   0.0840 
  8 C8       1.8690    10.6250    13.9240 C.3   1 Q101   0.0840 
  9 C12      3.9510     7.6080    21.8340 C.3   1 Q101   0.1690 
 10 C13      2.6440     8.4080    21.8640 C.3   1 Q101  -0.1080 
 11 C14      2.0940     8.3120    20.4450 C.3   1 Q101   0.1020 
 12 C15      3.2910     8.1790    18.2200 C.ar  1 Q101   0.0330 
 13 C21      2.4430     7.4600    17.3900 C.ar  1 Q101  -0.1060 
 14 C22      4.1870     9.0590    17.6300 C.ar  1 Q101   0.1210 
 15 C24      2.4760     7.6170    16.0190 C.ar  1 Q101  -0.0920 
 16 C26      4.2500     9.2420    16.2580 C.ar  1 Q101  -0.1400 
 17 C27      3.3750     8.5100    15.4550 C.ar  1 Q101  -0.1150 
 18 C28      3.3570     8.6020    13.9650 C.2   1 Q101   0.6760 
 19 C50      4.3280     7.5580    20.3580 C.2   1 Q101   0.6950 
 20 F1       5.0170     9.7510    18.4270 F     1 Q101  -0.1400 
 21 O1       3.8010     7.4520    24.5320 O.2   1 Q101  -0.5930 
 22 CL1     12.8590     7.8620    25.9090 Cl    1 Q101  -0.0550 
 23 C1      11.1300     7.9560    25.9000 C.2   1 Q101   0.0330 
 24 C2      10.3020     7.8040    26.9620 C.2   1 Q101  -0.1460 
 25 S2      10.3130     8.2800    24.4220 S.3   1 Q101   0.0240 
 26 C3       8.9640     7.9430    26.5840 C.2   1 Q101  -0.1130 
 27 C4       8.7840     8.2020    25.2310 C.2   1 Q101  -0.0920 
 28 C5       7.4740     8.3830    24.5950 C.2   1 Q101   0.0810 
 29 C6       6.3400     7.7680    24.9310 C.2   1 Q101  -0.4200 
 30 O2       4.7470     9.7610    24.3920 O.2   1 Q101  -0.5930 
 31 H142     1.6300     9.2470    20.1150 H     1 Q101   0.0600 
 32 H141     1.3780     7.4890    20.3520 H     1 Q101   0.0600 
 33 H132     1.9410     8.0290    22.6110 H     1 Q101   0.0720 
 34 H131     2.8490     9.4580    22.1070 H     1 Q101   0.0720 
 35 H83      2.4390    11.5220    14.1560 H     1 Q101   0.0490 
 36 H82      1.0730    10.8540    13.2090 H     1 Q101   0.0490 
 37 H81      1.4250    10.2110    14.8250 H     1 Q101   0.0490 
 38 H73      2.6710     8.8480    11.3920 H     1 Q101   0.0490 
 39 H72      2.6310    10.6380    11.4780 H     1 Q101   0.0490 
 40 H71      4.1570     9.7490    11.7490 H     1 Q101   0.0490 
 41 H6       6.2750     6.9320    25.6120 H     1 Q101   0.1940 
 42 H5       7.4710     9.1410    23.8120 H     1 Q101   0.1560 
 43 H3       8.1370     7.8730    27.2830 H     1 Q101   0.1600 
 44 H26      4.9570     9.9430    15.8340 H     1 Q101   0.1600 
 45 H24      1.8280     7.0160    15.3960 H     1 Q101   0.1630 
 46 H21      1.7420     6.7450    17.8140 H     1 Q101   0.1530 
 47 H2      10.6260     7.6080    27.9750 H     1 Q101   0.1720 
 48 H12      3.7410     6.5770    22.1420 H     1 Q101   0.0910 
 49 H1       5.9660     8.1030    22.2340 H     1 Q101   0.4670 
@<TRIPOS>BOND
  1   1   2  am  
  2   1   9  1   
  3   1  49  1   
  4   2  21  2   
  5   2  29  1   
  6   2  30  2   
  7   3  11  1   
  8   3  12  1   
  9   3  19  am  
 10   4   7  1   
 11   4   8  1   
 12   4  18  am  
 13   5  19  2   
 14   6  18  2   
 15   7  38  1   
 16   7  39  1   
 17   7  40  1   
 18   8  35  1   
 19   8  36  1   
 20   8  37  1   
 21   9  10  1   
 22   9  19  1   
 23   9  48  1   
 24  10  11  1   
 25  10  33  1   
 26  10  34  1   
 27  11  31  1   
 28  11  32  1   
 29  12  13  ar  
 30  12  14  ar  
 31  13  15  ar  
 32  13  46  1   
 33  14  16  ar  
 34  14  20  1   
 35  15  17  ar  
 36  15  45  1   
 37  16  17  ar  
 38  16  44  1   
 39  17  18  1   
 40  22  23  1   
 41  23  24  2   
 42  23  25  1   
 43  24  26  1   
 44  24  47  1   
 45  25  27  1   
 46  26  27  2   
 47  26  43  1   
 48  27  28  1   
 49  28  29  2   
 50  28  42  1   
 51  29  41  1   
@<TRIPOS>SUBSTRUCTURE
  1 Q101  19 GROUP 4 **** **** 0

# MOE 2011.10 (io_trps.svl 2011.10)

@<TRIPOS>MOLECULE
FXA101_132
49 51 1 0 0 
SMALL
USER_CHARGES


@<TRIPOS>ATOM
  1 N1       5.1160     7.2720    23.2340 N.am  1 Q101  -0.8960 
  2 S1       4.8330     8.5120    24.2290 S.o2  1 Q101   1.3220 
  3 N2       6.5630     6.1220    20.3270 N.am  1 Q101  -0.3970 
  4 N3       9.0350     1.1440    16.9900 N.am  1 Q101  -0.4840 
  5 O3       4.4560     5.5050    21.0270 O.2   1 Q101  -0.6040 
  6 O4       6.8650     0.9910    16.5330 O.2   1 Q101  -0.6060 
  7 C7      10.0050     1.8140    17.8700 C.3   1 Q101   0.0840 
  8 C8       9.5300     0.0720    16.1110 C.3   1 Q101   0.0840 
  9 C12      5.5320     7.5300    21.8750 C.3   1 Q101   0.1690 
 10 C13      7.0040     7.9330    21.7500 C.3   1 Q101  -0.1080 
 11 C14      7.5000     7.2240    20.4950 C.3   1 Q101   0.1020 
 12 C15      6.8480     4.9920    19.4980 C.ar  1 Q101   0.0330 
 13 C21      7.0920     3.7400    20.0460 C.ar  1 Q101  -0.1060 
 14 C22      6.9170     5.1230    18.1190 C.ar  1 Q101   0.1210 
 15 C24      7.3830     2.6520    19.2480 C.ar  1 Q101  -0.0920 
 16 C26      7.2080     4.0540    17.2860 C.ar  1 Q101  -0.1400 
 17 C27      7.4360     2.8080    17.8710 C.ar  1 Q101  -0.1150 
 18 C28      7.7770     1.5840    17.0870 C.2   1 Q101   0.6760 
 19 C50      5.4180     6.2590    21.0410 C.2   1 Q101   0.6950 
 20 F1       6.6920     6.3340    17.5830 F     1 Q101  -0.1400 
 21 O1       4.1340     7.9270    25.3320 O.2   1 Q101  -0.5930 
 22 CL1     12.6820     7.7530    26.2110 Cl    1 Q101  -0.0550 
 23 C1      11.0940     8.2360    25.7180 C.2   1 Q101   0.0330 
 24 C2      10.7720     9.2970    24.9400 C.2   1 Q101  -0.1460 
 25 S2       9.7370     7.3120    26.2310 S.3   1 Q101   0.0240 
 26 C3       9.3910     9.3840    24.7500 C.2   1 Q101  -0.1130 
 27 C4       8.6690     8.3820    25.3880 C.2   1 Q101  -0.0920 
 28 C5       7.2070     8.2620    25.3390 C.2   1 Q101   0.0810 
 29 C6       6.3620     9.1280    24.7800 C.2   1 Q101  -0.4200 
 30 O2       4.1970     9.4680    23.3660 O.2   1 Q101  -0.5930 
 31 H142     8.5230     6.8520    20.6040 H     1 Q101   0.0600 
 32 H141     7.4340     7.8770    19.6190 H     1 Q101   0.0600 
 33 H132     7.1370     9.0180    21.6980 H     1 Q101   0.0720 
 34 H131     7.5690     7.5750    22.6200 H     1 Q101   0.0720 
 35 H83      9.9640     0.5170    15.2190 H     1 Q101   0.0490 
 36 H82     10.2820    -0.5120    16.6490 H     1 Q101   0.0490 
 37 H81      8.7000    -0.5790    15.8480 H     1 Q101   0.0490 
 38 H73      9.7340     1.6040    18.9080 H     1 Q101   0.0490 
 39 H72     11.0190     1.4620    17.6650 H     1 Q101   0.0490 
 40 H71      9.9560     2.8970    17.7140 H     1 Q101   0.0490 
 41 H6       6.5560    10.1840    24.6590 H     1 Q101   0.1940 
 42 H5       6.8310     7.3360    25.7710 H     1 Q101   0.1560 
 43 H3       8.9190    10.1520    24.1450 H     1 Q101   0.1600 
 44 H26      7.2450     4.1930    16.2140 H     1 Q101   0.1600 
 45 H24      7.6030     1.6970    19.7060 H     1 Q101   0.1630 
 46 H21      7.0690     3.6040    21.1240 H     1 Q101   0.1530 
 47 H2      11.4850     9.9880    24.5110 H     1 Q101   0.1720 
 48 H12      4.9140     8.2890    21.3800 H     1 Q101   0.0910 
 49 H1       4.5680     6.4230    23.3950 H     1 Q101   0.4670 
@<TRIPOS>BOND
  1   1   2  am  
  2   1   9  1   
  3   1  49  1   
  4   2  21  2   
  5   2  29  1   
  6   2  30  2   
  7   3  11  1   
  8   3  12  1   
  9   3  19  am  
 10   4   7  1   
 11   4   8  1   
 12   4  18  am  
 13   5  19  2   
 14   6  18  2   
 15   7  38  1   
 16   7  39  1   
 17   7  40  1   
 18   8  35  1   
 19   8  36  1   
 20   8  37  1   
 21   9  10  1   
 22   9  19  1   
 23   9  48  1   
 24  10  11  1   
 25  10  33  1   
 26  10  34  1   
 27  11  31  1   
 28  11  32  1   
 29  12  13  ar  
 30  12  14  ar  
 31  13  15  ar  
 32  13  46  1   
 33  14  16  ar  
 34  14  20  1   
 35  15  17  ar  
 36  15  45  1   
 37  16  17  ar  
 38  16  44  1   
 39  17  18  1   
 40  22  23  1   
 41  23  24  2   
 42  23  25  1   
 43  24  26  1   
 44  24  47  1   
 45  25  27  1   
 46  26  27  2   
 47  26  43  1   
 48  27  28  1   
 49  28  29  2   
 50  28  42  1   
 51  29  41  1   
@<TRIPOS>SUBSTRUCTURE
  1 Q101   3 GROUP 4 **** **** 0

# MOE 2011.10 (io_trps.svl 2011.10)

@<TRIPOS>MOLECULE
FXA101_133
49 51 1 0 0 
SMALL
USER_CHARGES


@<TRIPOS>ATOM
  1 N1       4.7690    11.3610    14.0860 N.am  1 Q101  -0.8960 
  2 S1       4.0840    12.5240    13.1980 S.o2  1 Q101   1.3220 
  3 N2       5.0080    10.3560    17.3720 N.am  1 Q101  -0.3970 
  4 N3       8.0850     9.6620    23.0700 N.am  1 Q101  -0.4840 
  5 O3       5.2660    12.5420    16.6910 O.2   1 Q101  -0.6040 
  6 O4       8.2730    11.8320    22.6280 O.2   1 Q101  -0.6060 
  7 C7       9.4520     9.1160    23.0610 C.3   1 Q101   0.0840 
  8 C8       7.0880     9.0040    23.9300 C.3   1 Q101   0.0840 
  9 C12      4.1130    10.9040    15.2890 C.3   1 Q101   0.1690 
 10 C13      4.1030     9.3800    15.4420 C.3   1 Q101  -0.1080 
 11 C14      4.3580     9.1330    16.9240 C.3   1 Q101   0.1020 
 12 C15      5.7470    10.4290    18.5950 C.ar  1 Q101   0.0330 
 13 C21      5.1040    10.5310    19.8200 C.ar  1 Q101  -0.1060 
 14 C22      7.1340    10.4280    18.5870 C.ar  1 Q101   0.1210 
 15 C24      5.8150    10.6190    21.0000 C.ar  1 Q101  -0.0920 
 16 C26      7.8820    10.5160    19.7500 C.ar  1 Q101  -0.1400 
 17 C27      7.2020    10.6060    20.9640 C.ar  1 Q101  -0.1150 
 18 C28      7.8900    10.7250    22.2840 C.2   1 Q101   0.6760 
 19 C50      4.8660    11.4000    16.5180 C.2   1 Q101   0.6950 
 20 F1       7.7630    10.3400    17.4030 F     1 Q101  -0.1400 
 21 O1       5.0250    12.7660    12.1480 O.2   1 Q101  -0.5930 
 22 CL1      2.7270     6.1280     9.2960 Cl    1 Q101  -0.0550 
 23 C1       2.4770     7.5750    10.2140 C.2   1 Q101   0.0330 
 24 C2       1.7340     7.7050    11.3390 C.2   1 Q101  -0.1460 
 25 S2       3.2260     9.0350     9.7000 S.3   1 Q101   0.0240 
 26 C3       1.7550     9.0210    11.8080 C.2   1 Q101  -0.1130 
 27 C4       2.5190     9.8860    11.0320 C.2   1 Q101  -0.0920 
 28 C5       2.6920    11.3140    11.3190 C.2   1 Q101   0.0810 
 29 C6       2.6140    11.8940    12.5170 C.2   1 Q101  -0.4200 
 30 O2       3.7840    13.5300    14.1780 O.2   1 Q101  -0.5930 
 31 H142     5.0020     8.2640    17.0960 H     1 Q101   0.0600 
 32 H141     3.4190     9.0130    17.4740 H     1 Q101   0.0600 
 33 H132     3.1650     8.9330    15.0990 H     1 Q101   0.0720 
 34 H131     4.9140     8.9360    14.8510 H     1 Q101   0.0720 
 35 H83      6.6900     8.1360    23.4090 H     1 Q101   0.0490 
 36 H82      7.5670     8.7010    24.8650 H     1 Q101   0.0490 
 37 H81      6.2950     9.7130    24.1530 H     1 Q101   0.0490 
 38 H73     10.1290     9.8710    23.4690 H     1 Q101   0.0490 
 39 H72      9.5040     8.2000    23.6540 H     1 Q101   0.0490 
 40 H71      9.7560     8.9030    22.0300 H     1 Q101   0.0490 
 41 H6       1.7020    12.0120    13.0840 H     1 Q101   0.1940 
 42 H5       2.9560    11.9060    10.4430 H     1 Q101   0.1560 
 43 H3       1.2380     9.3420    12.7070 H     1 Q101   0.1600 
 44 H26      8.9630    10.5040    19.7050 H     1 Q101   0.1600 
 45 H24      5.2860    10.7330    21.9360 H     1 Q101   0.1630 
 46 H21      4.0180    10.5570    19.8650 H     1 Q101   0.1530 
 47 H2       1.1980     6.9010    11.8230 H     1 Q101   0.1720 
 48 H12      3.0850    11.2750    15.3780 H     1 Q101   0.0910 
 49 H1       5.7910    11.3190    14.0740 H     1 Q101   0.4670 
@<TRIPOS>BOND
  1   1   2  am  
  2   1   9  1   
  3   1  49  1   
  4   2  21  2   
  5   2  29  1   
  6   2  30  2   
  7   3  11  1   
  8   3  12  1   
  9   3  19  am  
 10   4   7  1   
 11   4   8  1   
 12   4  18  am  
 13   5  19  2   
 14   6  18  2   
 15   7  38  1   
 16   7  39  1   
 17   7  40  1   
 18   8  35  1   
 19   8  36  1   
 20   8  37  1   
 21   9  10  1   
 22   9  19  1   
 23   9  48  1   
 24  10  11  1   
 25  10  33  1   
 26  10  34  1   
 27  11  31  1   
 28  11  32  1   
 29  12  13  ar  
 30  12  14  ar  
 31  13  15  ar  
 32  13  46  1   
 33  14  16  ar  
 34  14  20  1   
 35  15  17  ar  
 36  15  45  1   
 37  16  17  ar  
 38  16  44  1   
 39  17  18  1   
 40  22  23  1   
 41  23  24  2   
 42  23  25  1   
 43  24  26  1   
 44  24  47  1   
 45  25  27  1   
 46  26  27  2   
 47  26  43  1   
 48  27  28  1   
 49  28  29  2   
 50  28  42  1   
 51  29  41  1   
@<TRIPOS>SUBSTRUCTURE
  1 Q101   3 GROUP 4 **** **** 0

# MOE 2011.10 (io_trps.svl 2011.10)

@<TRIPOS>MOLECULE
FXA101_134
49 51 1 0 0 
SMALL
USER_CHARGES


@<TRIPOS>ATOM
  1 N1       7.1920     9.3750    21.1910 N.am  1 Q101  -0.8960 
  2 S1       7.4910     9.8760    22.6970 S.o2  1 Q101   1.3220 
  3 N2       5.2910     7.4480    19.0600 N.am  1 Q101  -0.3970 
  4 N3       3.2450     5.1040    13.3640 N.am  1 Q101  -0.4840 
  5 O3       7.5890     7.5790    18.9440 O.2   1 Q101  -0.6040 
  6 O4       5.1840     6.0520    12.8340 O.2   1 Q101  -0.6060 
  7 C7       1.9670     5.7800    13.6360 C.3   1 Q101   0.0840 
  8 C8       3.1980     3.7550    12.7770 C.3   1 Q101   0.0840 
  9 C12      6.3840     8.1960    20.9800 C.3   1 Q101   0.1690 
 10 C13      4.8810     8.4460    21.1420 C.3   1 Q101  -0.1080 
 11 C14      4.2260     7.6250    20.0360 C.3   1 Q101   0.1020 
 12 C15      5.0350     7.0560    17.7080 C.ar  1 Q101   0.0330 
 13 C21      4.8440     5.7240    17.3680 C.ar  1 Q101  -0.1060 
 14 C22      4.9990     7.9990    16.6910 C.ar  1 Q101   0.1210 
 15 C24      4.6140     5.3430    16.0620 C.ar  1 Q101  -0.0920 
 16 C26      4.7720     7.6540    15.3680 C.ar  1 Q101  -0.1400 
 17 C27      4.5730     6.3060    15.0650 C.ar  1 Q101  -0.1150 
 18 C28      4.3390     5.8030    13.6790 C.2   1 Q101   0.6760 
 19 C50      6.5310     7.7090    19.5430 C.2   1 Q101   0.6950 
 20 F1       5.1930     9.2880    17.0120 F     1 Q101  -0.1400 
 21 O1       6.3420     9.4620    23.4410 O.2   1 Q101  -0.5930 
 22 CL1     13.9220     7.2570    26.5060 Cl    1 Q101  -0.0550 
 23 C1      12.2410     7.6070    26.2850 C.2   1 Q101   0.0330 
 24 C2      11.2590     7.4960    27.2120 C.2   1 Q101  -0.1460 
 25 S2      11.6930     8.1640    24.7530 S.3   1 Q101   0.0240 
 26 C3      10.0190     7.8610    26.6800 C.2   1 Q101  -0.1130 
 27 C4      10.0690     8.2500    25.3470 C.2   1 Q101  -0.0920 
 28 C5       8.8990     8.6740    24.5690 C.2   1 Q101   0.0810 
 29 C6       8.8900     9.0290    23.2850 C.2   1 Q101  -0.4200 
 30 O2       7.7980    11.2660    22.5090 O.2   1 Q101  -0.5930 
 31 H142     3.3690     8.1390    19.5890 H     1 Q101   0.0600 
 32 H141     3.9180     6.6410    20.4030 H     1 Q101   0.0600 
 33 H132     4.5180     8.1720    22.1370 H     1 Q101   0.0720 
 34 H131     4.6560     9.5090    20.9910 H     1 Q101   0.0720 
 35 H83      3.0340     3.0290    13.5700 H     1 Q101   0.0490 
 36 H82      2.3840     3.7120    12.0470 H     1 Q101   0.0490 
 37 H81      4.1380     3.5600    12.2680 H     1 Q101   0.0490 
 38 H73      1.9010     6.6670    13.0010 H     1 Q101   0.0490 
 39 H72      1.1260     5.1100    13.4380 H     1 Q101   0.0490 
 40 H71      1.9370     6.1030    14.6830 H     1 Q101   0.0490 
 41 H6       9.6960     8.8390    22.5900 H     1 Q101   0.1940 
 42 H5       7.9640     8.6290    25.1280 H     1 Q101   0.1560 
 43 H3       9.1000     7.8600    27.2570 H     1 Q101   0.1600 
 44 H26      4.7430     8.4180    14.6030 H     1 Q101   0.1600 
 45 H24      4.5040     4.2940    15.8220 H     1 Q101   0.1630 
 46 H21      4.8880     4.9550    18.1340 H     1 Q101   0.1530 
 47 H2      11.4060     7.1750    28.2340 H     1 Q101   0.1720 
 48 H12      6.6750     7.3620    21.6280 H     1 Q101   0.0910 
 49 H1       7.9140     9.5690    20.4920 H     1 Q101   0.4670 
@<TRIPOS>BOND
  1   1   2  am  
  2   1   9  1   
  3   1  49  1   
  4   2  21  2   
  5   2  29  1   
  6   2  30  2   
  7   3  11  1   
  8   3  12  1   
  9   3  19  am  
 10   4   7  1   
 11   4   8  1   
 12   4  18  am  
 13   5  19  2   
 14   6  18  2   
 15   7  38  1   
 16   7  39  1   
 17   7  40  1   
 18   8  35  1   
 19   8  36  1   
 20   8  37  1   
 21   9  10  1   
 22   9  19  1   
 23   9  48  1   
 24  10  11  1   
 25  10  33  1   
 26  10  34  1   
 27  11  31  1   
 28  11  32  1   
 29  12  13  ar  
 30  12  14  ar  
 31  13  15  ar  
 32  13  46  1   
 33  14  16  ar  
 34  14  20  1   
 35  15  17  ar  
 36  15  45  1   
 37  16  17  ar  
 38  16  44  1   
 39  17  18  1   
 40  22  23  1   
 41  23  24  2   
 42  23  25  1   
 43  24  26  1   
 44  24  47  1   
 45  25  27  1   
 46  26  27  2   
 47  26  43  1   
 48  27  28  1   
 49  28  29  2   
 50  28  42  1   
 51  29  41  1   
@<TRIPOS>SUBSTRUCTURE
  1 Q101  19 GROUP 4 **** **** 0

# MOE 2011.10 (io_trps.svl 2011.10)

@<TRIPOS>MOLECULE
FXA101_135
49 51 1 0 0 
SMALL
USER_CHARGES


@<TRIPOS>ATOM
  1 N1       4.2160     9.7900    19.8490 N.am  1 Q101  -0.8960 
  2 S1       4.8190    10.8680    20.8900 S.o2  1 Q101   1.3220 
  3 N2       4.5980     6.3800    19.5430 N.am  1 Q101  -0.3970 
  4 N3       7.7000     1.5050    16.6060 N.am  1 Q101  -0.4840 
  5 O3       6.2240     7.7680    20.4030 O.2   1 Q101  -0.6040 
  6 O4       8.9200     1.8040    18.4390 O.2   1 Q101  -0.6060 
  7 C7       8.7760     0.6320    16.1110 C.3   1 Q101   0.0840 
  8 C8       6.4770     1.6170    15.7940 C.3   1 Q101   0.0840 
  9 C12      3.8830     8.4630    20.3120 C.3   1 Q101   0.1690 
 10 C13      2.7390     7.8100    19.5280 C.3   1 Q101  -0.1080 
 11 C14      3.1520     6.3500    19.3760 C.3   1 Q101   0.1020 
 12 C15      5.4420     5.3040    19.1230 C.ar  1 Q101   0.0330 
 13 C21      6.3740     5.4720    18.1090 C.ar  1 Q101  -0.1060 
 14 C22      5.3310     4.0490    19.7040 C.ar  1 Q101   0.1210 
 15 C24      7.1770     4.4300    17.6920 C.ar  1 Q101  -0.0920 
 16 C26      6.1190     2.9790    19.3110 C.ar  1 Q101  -0.1400 
 17 C27      7.0540     3.1870    18.2960 C.ar  1 Q101  -0.1150 
 18 C28      7.9470     2.1130    17.7700 C.2   1 Q101   0.6760 
 19 C50      5.0650     7.5230    20.1060 C.2   1 Q101   0.6950 
 20 F1       4.4240     3.8770    20.6790 F     1 Q101  -0.1400 
 21 O1       3.6680    11.5420    21.4070 O.2   1 Q101  -0.5930 
 22 CL1     10.9100     8.8190    25.9600 Cl    1 Q101  -0.0550 
 23 C1       9.4920     8.9440    24.9730 C.2   1 Q101   0.0330 
 24 C2       8.5670     7.9780    24.7560 C.2   1 Q101  -0.1460 
 25 S2       9.1620    10.4210    24.1580 S.3   1 Q101   0.0240 
 26 C3       7.5570     8.4300    23.9020 C.2   1 Q101  -0.1130 
 27 C4       7.7240     9.7420    23.4740 C.2   1 Q101  -0.0920 
 28 C5       6.7990    10.4370    22.5710 C.2   1 Q101   0.0810 
 29 C6       5.6030    10.0020    22.1780 C.2   1 Q101  -0.4200 
 30 O2       5.7940    11.5600    20.0950 O.2   1 Q101  -0.5930 
 31 H142     2.8810     5.9410    18.3980 H     1 Q101   0.0600 
 32 H141     2.7210     5.7310    20.1700 H     1 Q101   0.0600 
 33 H132     1.7730     7.9210    20.0300 H     1 Q101   0.0720 
 34 H131     2.6490     8.2700    18.5360 H     1 Q101   0.0720 
 35 H83      6.6420     2.3450    15.0030 H     1 Q101   0.0490 
 36 H82      6.2410     0.6380    15.3670 H     1 Q101   0.0490 
 37 H81      5.6560     1.9290    16.4350 H     1 Q101   0.0490 
 38 H73      8.9040    -0.1940    16.8150 H     1 Q101   0.0490 
 39 H72      8.5340     0.2480    15.1170 H     1 Q101   0.0490 
 40 H71      9.7140     1.1950    16.0670 H     1 Q101   0.0490 
 41 H6       5.0950     9.1440    22.5930 H     1 Q101   0.1940 
 42 H5       7.1500    11.4210    22.2610 H     1 Q101   0.1560 
 43 H3       6.7070     7.8210    23.6080 H     1 Q101   0.1600 
 44 H26      6.0100     2.0160    19.7920 H     1 Q101   0.1600 
 45 H24      7.8700     4.5820    16.8750 H     1 Q101   0.1630 
 46 H21      6.4740     6.4360    17.6150 H     1 Q101   0.1530 
 47 H2       8.5920     6.9880    25.1890 H     1 Q101   0.1720 
 48 H12      3.6390     8.4360    21.3800 H     1 Q101   0.0910 
 49 H1       4.5180     9.8760    18.8760 H     1 Q101   0.4670 
@<TRIPOS>BOND
  1   1   2  am  
  2   1   9  1   
  3   1  49  1   
  4   2  21  2   
  5   2  29  1   
  6   2  30  2   
  7   3  11  1   
  8   3  12  1   
  9   3  19  am  
 10   4   7  1   
 11   4   8  1   
 12   4  18  am  
 13   5  19  2   
 14   6  18  2   
 15   7  38  1   
 16   7  39  1   
 17   7  40  1   
 18   8  35  1   
 19   8  36  1   
 20   8  37  1   
 21   9  10  1   
 22   9  19  1   
 23   9  48  1   
 24  10  11  1   
 25  10  33  1   
 26  10  34  1   
 27  11  31  1   
 28  11  32  1   
 29  12  13  ar  
 30  12  14  ar  
 31  13  15  ar  
 32  13  46  1   
 33  14  16  ar  
 34  14  20  1   
 35  15  17  ar  
 36  15  45  1   
 37  16  17  ar  
 38  16  44  1   
 39  17  18  1   
 40  22  23  1   
 41  23  24  2   
 42  23  25  1   
 43  24  26  1   
 44  24  47  1   
 45  25  27  1   
 46  26  27  2   
 47  26  43  1   
 48  27  28  1   
 49  28  29  2   
 50  28  42  1   
 51  29  41  1   
@<TRIPOS>SUBSTRUCTURE
  1 Q101   5 GROUP 4 **** **** 0

# MOE 2011.10 (io_trps.svl 2011.10)

@<TRIPOS>MOLECULE
FXA101_136
49 51 1 0 0 
SMALL
USER_CHARGES


@<TRIPOS>ATOM
  1 N1       5.8240     9.8190    23.4880 N.am  1 Q101  -0.8960 
  2 S1       5.9980     8.6960    24.6360 S.o2  1 Q101   1.3220 
  3 N2       5.1460    10.4820    20.1770 N.am  1 Q101  -0.3970 
  4 N3       2.6480    14.4060    15.6700 N.am  1 Q101  -0.4840 
  5 O3       6.6490    11.6960    21.4330 O.2   1 Q101  -0.6040 
  6 O4       4.6370    15.3280    16.0340 O.2   1 Q101  -0.6060 
  7 C7       2.4630    13.3220    14.6930 C.3   1 Q101   0.0840 
  8 C8       1.5240    15.3310    15.8920 C.3   1 Q101   0.0840 
  9 C12      5.9640     9.4470    22.1000 C.3   1 Q101   0.1690 
 10 C13      4.7860     8.6260    21.5640 C.3   1 Q101  -0.1080 
 11 C14      4.5510     9.1540    20.1530 C.3   1 Q101   0.1020 
 12 C15      4.8440    11.4760    19.1930 C.ar  1 Q101   0.0330 
 13 C21      3.8800    12.4480    19.4220 C.ar  1 Q101  -0.1060 
 14 C22      5.4910    11.4790    17.9660 C.ar  1 Q101   0.1210 
 15 C24      3.5770    13.3980    18.4680 C.ar  1 Q101  -0.0920 
 16 C26      5.2130    12.4150    16.9830 C.ar  1 Q101  -0.1400 
 17 C27      4.2460    13.3840    17.2530 C.ar  1 Q101  -0.1150 
 18 C28      3.8400    14.4340    16.2720 C.2   1 Q101   0.6760 
 19 C50      5.9850    10.6920    21.2220 C.2   1 Q101   0.6950 
 20 F1       6.4180    10.5350    17.7340 F     1 Q101  -0.1400 
 21 O1       5.9390     7.4550    23.9260 O.2   1 Q101  -0.5930 
 22 CL1     13.3260     7.2390    27.1140 Cl    1 Q101  -0.0550 
 23 C1      12.1160     7.7710    25.9950 C.2   1 Q101   0.0330 
 24 C2      12.3110     8.1560    24.7110 C.2   1 Q101  -0.1460 
 25 S2      10.4740     7.8370    26.5000 S.3   1 Q101   0.0240 
 26 C3      11.1060     8.5250    24.1060 C.2   1 Q101  -0.1130 
 27 C4       9.9990     8.4170    24.9400 C.2   1 Q101  -0.0920 
 28 C5       8.6280     8.7490    24.5350 C.2   1 Q101   0.0810 
 29 C6       7.5760     8.8780    25.3420 C.2   1 Q101  -0.4200 
 30 O2       4.9860     9.0600    25.5870 O.2   1 Q101  -0.5930 
 31 H142     3.4880     9.2080    19.9010 H     1 Q101   0.0600 
 32 H141     5.0790     8.5470    19.4100 H     1 Q101   0.0600 
 33 H132     4.9860     7.5500    21.5800 H     1 Q101   0.0720 
 34 H131     3.8930     8.8030    22.1750 H     1 Q101   0.0720 
 35 H83      1.5330    16.0910    15.1140 H     1 Q101   0.0490 
 36 H82      0.5870    14.7680    15.8640 H     1 Q101   0.0490 
 37 H81      1.6330    15.7860    16.8730 H     1 Q101   0.0490 
 38 H73      2.5110    12.3660    15.2220 H     1 Q101   0.0490 
 39 H72      1.5020    13.4230    14.1820 H     1 Q101   0.0490 
 40 H71      3.2720    13.3490    13.9560 H     1 Q101   0.0490 
 41 H6       7.6360     9.0740    26.4030 H     1 Q101   0.1940 
 42 H5       8.5250     8.9490    23.4690 H     1 Q101   0.1560 
 43 H3      11.0330     8.8510    23.0730 H     1 Q101   0.1600 
 44 H26      5.7440    12.3900    16.0410 H     1 Q101   0.1600 
 45 H24      2.7960    14.1200    18.6620 H     1 Q101   0.1630 
 46 H21      3.3360    12.4640    20.3640 H     1 Q101   0.1530 
 47 H2      13.2680     8.1710    24.2080 H     1 Q101   0.1720 
 48 H12      6.8940     8.9020    21.9000 H     1 Q101   0.0910 
 49 H1       6.0950    10.7740    23.7390 H     1 Q101   0.4670 
@<TRIPOS>BOND
  1   1   2  am  
  2   1   9  1   
  3   1  49  1   
  4   2  21  2   
  5   2  29  1   
  6   2  30  2   
  7   3  11  1   
  8   3  12  1   
  9   3  19  am  
 10   4   7  1   
 11   4   8  1   
 12   4  18  am  
 13   5  19  2   
 14   6  18  2   
 15   7  38  1   
 16   7  39  1   
 17   7  40  1   
 18   8  35  1   
 19   8  36  1   
 20   8  37  1   
 21   9  10  1   
 22   9  19  1   
 23   9  48  1   
 24  10  11  1   
 25  10  33  1   
 26  10  34  1   
 27  11  31  1   
 28  11  32  1   
 29  12  13  ar  
 30  12  14  ar  
 31  13  15  ar  
 32  13  46  1   
 33  14  16  ar  
 34  14  20  1   
 35  15  17  ar  
 36  15  45  1   
 37  16  17  ar  
 38  16  44  1   
 39  17  18  1   
 40  22  23  1   
 41  23  24  2   
 42  23  25  1   
 43  24  26  1   
 44  24  47  1   
 45  25  27  1   
 46  26  27  2   
 47  26  43  1   
 48  27  28  1   
 49  28  29  2   
 50  28  42  1   
 51  29  41  1   
@<TRIPOS>SUBSTRUCTURE
  1 Q101  19 GROUP 4 **** **** 0

# MOE 2011.10 (io_trps.svl 2011.10)

@<TRIPOS>MOLECULE
FXA101_137
49 51 1 0 0 
SMALL
USER_CHARGES


@<TRIPOS>ATOM
  1 N1       2.1490     7.1250    18.1990 N.am  1 Q101  -0.8960 
  2 S1       0.9210     7.4860    17.2140 S.o2  1 Q101   1.3220 
  3 N2       3.6560     7.6680    21.2480 N.am  1 Q101  -0.3970 
  4 N3       8.9010     8.7730    24.9040 N.am  1 Q101  -0.4840 
  5 O3       3.5640     9.2520    19.5770 O.2   1 Q101  -0.6040 
  6 O4       8.7140    10.6600    23.7460 O.2   1 Q101  -0.6060 
  7 C7      10.1990     9.2760    25.3800 C.3   1 Q101   0.0840 
  8 C8       8.4220     7.4880    25.4410 C.3   1 Q101   0.0840 
  9 C12      2.0170     7.3600    19.6180 C.3   1 Q101   0.1690 
 10 C13      2.1150     6.0860    20.4620 C.3   1 Q101  -0.1080 
 11 C14      2.9240     6.4900    21.6890 C.3   1 Q101   0.1020 
 12 C15      4.8030     8.1650    21.9450 C.ar  1 Q101   0.0330 
 13 C21      6.0900     7.8450    21.5350 C.ar  1 Q101  -0.1060 
 14 C22      4.6580     8.9620    23.0710 C.ar  1 Q101   0.1210 
 15 C24      7.1960     8.3100    22.2150 C.ar  1 Q101  -0.0920 
 16 C26      5.7460     9.4460    23.7800 C.ar  1 Q101  -0.1400 
 17 C27      7.0250     9.1130    23.3330 C.ar  1 Q101  -0.1150 
 18 C28      8.2750     9.5550    24.0190 C.2   1 Q101   0.6760 
 19 C50      3.1660     8.2300    20.1150 C.2   1 Q101   0.6950 
 20 F1       3.4160     9.2680    23.4780 F     1 Q101  -0.1400 
 21 O1      -0.2060     6.8280    17.8000 O.2   1 Q101  -0.5930 
 22 CL1      6.7850    10.1460    14.9950 Cl    1 Q101  -0.0550 
 23 C1       5.0940    10.0230    15.3490 C.2   1 Q101   0.0330 
 24 C2       4.0940     9.7940    14.4650 C.2   1 Q101  -0.1460 
 25 S2       4.5610    10.1960    16.9750 S.3   1 Q101   0.0240 
 26 C3       2.8520     9.7610    15.1050 C.2   1 Q101  -0.1130 
 27 C4       2.9180     9.9660    16.4780 C.2   1 Q101  -0.0920 
 28 C5       1.7500     9.9800    17.3660 C.2   1 Q101   0.0810 
 29 C6       0.6710     9.2050    17.2630 C.2   1 Q101  -0.4200 
 30 O2       1.4260     7.0970    15.9270 O.2   1 Q101  -0.5930 
 31 H142     3.6120     5.7020    22.0120 H     1 Q101   0.0600 
 32 H141     2.2700     6.7740    22.5200 H     1 Q101   0.0600 
 33 H132     1.1320     5.6820    20.7240 H     1 Q101   0.0720 
 34 H131     2.6530     5.3060    19.9090 H     1 Q101   0.0720 
 35 H83      8.8880     6.6770    24.8870 H     1 Q101   0.0490 
 36 H82      8.6830     7.4260    26.5010 H     1 Q101   0.0490 
 37 H81      7.3400     7.4470    25.3410 H     1 Q101   0.0490 
 38 H73     10.0300    10.2070    25.9280 H     1 Q101   0.0490 
 39 H72     10.6840     8.5400    26.0260 H     1 Q101   0.0490 
 40 H71     10.8460     9.4920    24.5230 H     1 Q101   0.0490 
 41 H6      -0.3450     9.5700    17.2220 H     1 Q101   0.1940 
 42 H5       1.8460    10.6730    18.2010 H     1 Q101   0.1560 
 43 H3       1.9170     9.5760    14.5840 H     1 Q101   0.1600 
 44 H26      5.5940    10.0720    24.6500 H     1 Q101   0.1600 
 45 H24      8.1860     8.0140    21.8930 H     1 Q101   0.1630 
 46 H21      6.2420     7.2040    20.6700 H     1 Q101   0.1530 
 47 H2       4.2290     9.6460    13.4020 H     1 Q101   0.1720 
 48 H12      1.0890     7.8840    19.8750 H     1 Q101   0.0910 
 49 H1       3.0900     7.2050    17.8040 H     1 Q101   0.4670 
@<TRIPOS>BOND
  1   1   2  am  
  2   1   9  1   
  3   1  49  1   
  4   2  21  2   
  5   2  29  1   
  6   2  30  2   
  7   3  11  1   
  8   3  12  1   
  9   3  19  am  
 10   4   7  1   
 11   4   8  1   
 12   4  18  am  
 13   5  19  2   
 14   6  18  2   
 15   7  38  1   
 16   7  39  1   
 17   7  40  1   
 18   8  35  1   
 19   8  36  1   
 20   8  37  1   
 21   9  10  1   
 22   9  19  1   
 23   9  48  1   
 24  10  11  1   
 25  10  33  1   
 26  10  34  1   
 27  11  31  1   
 28  11  32  1   
 29  12  13  ar  
 30  12  14  ar  
 31  13  15  ar  
 32  13  46  1   
 33  14  16  ar  
 34  14  20  1   
 35  15  17  ar  
 36  15  45  1   
 37  16  17  ar  
 38  16  44  1   
 39  17  18  1   
 40  22  23  1   
 41  23  24  2   
 42  23  25  1   
 43  24  26  1   
 44  24  47  1   
 45  25  27  1   
 46  26  27  2   
 47  26  43  1   
 48  27  28  1   
 49  28  29  2   
 50  28  42  1   
 51  29  41  1   
@<TRIPOS>SUBSTRUCTURE
  1 Q101   5 GROUP 4 **** **** 0

# MOE 2011.10 (io_trps.svl 2011.10)

@<TRIPOS>MOLECULE
FXA101_138
49 51 1 0 0 
SMALL
USER_CHARGES


@<TRIPOS>ATOM
  1 N1       5.2520     7.6190    23.1520 N.am  1 Q101  -0.8960 
  2 S1       5.1020     8.8860    24.1420 S.o2  1 Q101   1.3220 
  3 N2       6.3420     6.2500    20.1850 N.am  1 Q101  -0.3970 
  4 N3       6.9570     1.6400    15.6030 N.am  1 Q101  -0.4840 
  5 O3       4.1250     6.3310    20.8070 O.2   1 Q101  -0.6040 
  6 O4       5.2530     0.9590    16.8560 O.2   1 Q101  -0.6060 
  7 C7       6.3610     1.7130    14.2590 C.3   1 Q101   0.0840 
  8 C8       8.4080     1.4070    15.7000 C.3   1 Q101   0.0840 
  9 C12      5.7820     7.8140    21.8220 C.3   1 Q101   0.1690 
 10 C13      7.3090     7.7050    21.7490 C.3   1 Q101  -0.1080 
 11 C14      7.5860     6.9580    20.4490 C.3   1 Q101   0.1020 
 12 C15      6.2640     5.1480    19.2760 C.ar  1 Q101   0.0330 
 13 C21      6.2100     3.8390    19.7330 C.ar  1 Q101  -0.1060 
 14 C22      6.2680     5.3580    17.9050 C.ar  1 Q101   0.1210 
 15 C24      6.1510     2.7740    18.8570 C.ar  1 Q101  -0.0920 
 16 C26      6.2110     4.3150    16.9950 C.ar  1 Q101  -0.1400 
 17 C27      6.1470     3.0120    17.4900 C.ar  1 Q101  -0.1150 
 18 C28      6.1020     1.8030    16.6160 C.2   1 Q101   0.6760 
 19 C50      5.2820     6.7150    20.8920 C.2   1 Q101   0.6950 
 20 F1       6.3300     6.6230    17.4560 F     1 Q101  -0.1400 
 21 O1       6.0850     9.8160    23.6770 O.2   1 Q101  -0.5930 
 22 CL1      1.1120     3.4800    22.9970 Cl    1 Q101  -0.0550 
 23 C1       1.6890     5.0450    23.4620 C.2   1 Q101   0.0330 
 24 C2       2.1940     5.4000    24.6680 C.2   1 Q101  -0.1460 
 25 S2       1.6490     6.3300    22.3190 S.3   1 Q101   0.0240 
 26 C3       2.5580     6.7490    24.6860 C.2   1 Q101  -0.1130 
 27 C4       2.3260     7.4130    23.4870 C.2   1 Q101  -0.0920 
 28 C5       2.6210     8.8320    23.2620 C.2   1 Q101   0.0810 
 29 C6       3.5180     9.5670    23.9200 C.2   1 Q101  -0.4200 
 30 O2       5.2020     8.2820    25.4410 O.2   1 Q101  -0.5930 
 31 H142     8.4210     6.2560    20.5430 H     1 Q101   0.0600 
 32 H141     7.7760     7.6530    19.6250 H     1 Q101   0.0600 
 33 H132     7.7980     8.6830    21.7810 H     1 Q101   0.0720 
 34 H131     7.6880     7.1200    22.5960 H     1 Q101   0.0720 
 35 H83      8.6020     0.3420    15.6050 H     1 Q101   0.0490 
 36 H82      8.9120     1.9600    14.9020 H     1 Q101   0.0490 
 37 H81      8.7590     1.7760    16.6600 H     1 Q101   0.0490 
 38 H73      5.9670     2.7220    14.1090 H     1 Q101   0.0490 
 39 H72      7.1060     1.4800    13.4940 H     1 Q101   0.0490 
 40 H71      5.5290     1.0040    14.1870 H     1 Q101   0.0490 
 41 H6       3.3330    10.5560    24.3110 H     1 Q101   0.1940 
 42 H5       2.0630     9.2680    22.4340 H     1 Q101   0.1560 
 43 H3       2.9990     7.2360    25.5500 H     1 Q101   0.1600 
 44 H26      6.2090     4.5180    15.9320 H     1 Q101   0.1600 
 45 H24      6.1460     1.7640    19.2420 H     1 Q101   0.1630 
 46 H21      6.2270     3.6340    20.8000 H     1 Q101   0.1530 
 47 H2       2.3120     4.7320    25.5100 H     1 Q101   0.1720 
 48 H12      5.4740     8.7680    21.3790 H     1 Q101   0.0910 
 49 H1       4.5740     6.8630    23.2720 H     1 Q101   0.4670 
@<TRIPOS>BOND
  1   1   2  am  
  2   1   9  1   
  3   1  49  1   
  4   2  21  2   
  5   2  29  1   
  6   2  30  2   
  7   3  11  1   
  8   3  12  1   
  9   3  19  am  
 10   4   7  1   
 11   4   8  1   
 12   4  18  am  
 13   5  19  2   
 14   6  18  2   
 15   7  38  1   
 16   7  39  1   
 17   7  40  1   
 18   8  35  1   
 19   8  36  1   
 20   8  37  1   
 21   9  10  1   
 22   9  19  1   
 23   9  48  1   
 24  10  11  1   
 25  10  33  1   
 26  10  34  1   
 27  11  31  1   
 28  11  32  1   
 29  12  13  ar  
 30  12  14  ar  
 31  13  15  ar  
 32  13  46  1   
 33  14  16  ar  
 34  14  20  1   
 35  15  17  ar  
 36  15  45  1   
 37  16  17  ar  
 38  16  44  1   
 39  17  18  1   
 40  22  23  1   
 41  23  24  2   
 42  23  25  1   
 43  24  26  1   
 44  24  47  1   
 45  25  27  1   
 46  26  27  2   
 47  26  43  1   
 48  27  28  1   
 49  28  29  2   
 50  28  42  1   
 51  29  41  1   
@<TRIPOS>SUBSTRUCTURE
  1 Q101  19 GROUP 4 **** **** 0

# MOE 2011.10 (io_trps.svl 2011.10)

@<TRIPOS>MOLECULE
FXA101_139
49 51 1 0 0 
SMALL
USER_CHARGES


@<TRIPOS>ATOM
  1 N1       6.3120     8.5340    22.2290 N.am  1 Q101  -0.8960 
  2 S1       6.7250     8.8690    23.7540 S.o2  1 Q101   1.3220 
  3 N2       5.3460     6.2850    19.8050 N.am  1 Q101  -0.3970 
  4 N3       4.6370     3.9200    13.8120 N.am  1 Q101  -0.4840 
  5 O3       7.3810     7.3680    19.7950 O.2   1 Q101  -0.6040 
  6 O4       5.4820     5.9380    13.4260 O.2   1 Q101  -0.6060 
  7 C7       3.1800     3.7290    13.8870 C.3   1 Q101   0.0840 
  8 C8       5.4500     2.8080    13.2910 C.3   1 Q101   0.0840 
  9 C12      6.0620     7.1650    21.8430 C.3   1 Q101   0.1690 
 10 C13      4.5940     6.7480    21.9770 C.3   1 Q101  -0.1080 
 11 C14      4.3200     5.8800    20.7540 C.3   1 Q101   0.1020 
 12 C15      5.2540     6.0000    18.4060 C.ar  1 Q101   0.0330 
 13 C21      5.7370     4.8100    17.8800 C.ar  1 Q101  -0.1060 
 14 C22      4.7030     6.9220    17.5290 C.ar  1 Q101   0.1210 
 15 C24      5.6640     4.5400    16.5280 C.ar  1 Q101  -0.0920 
 16 C26      4.6130     6.6870    16.1660 C.ar  1 Q101  -0.1400 
 17 C27      5.0980     5.4750    15.6740 C.ar  1 Q101  -0.1150 
 18 C28      5.0790     5.1100    14.2270 C.2   1 Q101   0.6760 
 19 C50      6.3750     6.9710    20.3640 C.2   1 Q101   0.6950 
 20 F1       4.2430     8.0800    18.0300 F     1 Q101  -0.1400 
 21 O1       5.7970     8.1200    24.5440 O.2   1 Q101  -0.5930 
 22 CL1     14.0880     7.4440    26.2720 Cl    1 Q101  -0.0550 
 23 C1      12.3570     7.4240    26.3380 C.2   1 Q101   0.0330 
 24 C2      11.5890     7.0210    27.3790 C.2   1 Q101  -0.1460 
 25 S2      11.4580     7.9630    24.9760 S.3   1 Q101   0.0240 
 26 C3      10.2290     7.1390    27.0780 C.2   1 Q101  -0.1130 
 27 C4       9.9740     7.6340    25.8050 C.2   1 Q101  -0.0920 
 28 C5       8.6280     7.8440    25.2580 C.2   1 Q101   0.0810 
 29 C6       8.3310     8.2630    24.0280 C.2   1 Q101  -0.4200 
 30 O2       6.7300    10.3050    23.7700 O.2   1 Q101  -0.5930 
 31 H142     3.3200     6.0460    20.3410 H     1 Q101   0.0600 
 32 H141     4.4550     4.8180    20.9840 H     1 Q101   0.0600 
 33 H132     4.3930     6.2230    22.9160 H     1 Q101   0.0720 
 34 H131     3.9460     7.6330    21.9500 H     1 Q101   0.0720 
 35 H83      5.6300     2.0950    14.0920 H     1 Q101   0.0490 
 36 H82      4.9120     2.3280    12.4680 H     1 Q101   0.0490 
 37 H81      6.3890     3.2060    12.9150 H     1 Q101   0.0490 
 38 H73      2.7020     4.4370    13.2050 H     1 Q101   0.0490 
 39 H72      2.9110     2.7050    13.6170 H     1 Q101   0.0490 
 40 H71      2.8330     3.9420    14.9040 H     1 Q101   0.0490 
 41 H6       9.0220     8.2640    23.1970 H     1 Q101   0.1940 
 42 H5       7.8300     7.5690    25.9470 H     1 Q101   0.1560 
 43 H3       9.4400     6.8850    27.7780 H     1 Q101   0.1600 
 44 H26      4.1690     7.4270    15.5140 H     1 Q101   0.1600 
 45 H24      6.0810     3.6200    16.1430 H     1 Q101   0.1630 
 46 H21      6.1970     4.0720    18.5340 H     1 Q101   0.1530 
 47 H2      11.9680     6.6610    28.3250 H     1 Q101   0.1720 
 48 H12      6.6840     6.4500    22.3940 H     1 Q101   0.0910 
 49 H1       6.6860     9.1550    21.5070 H     1 Q101   0.4670 
@<TRIPOS>BOND
  1   1   2  am  
  2   1   9  1   
  3   1  49  1   
  4   2  21  2   
  5   2  29  1   
  6   2  30  2   
  7   3  11  1   
  8   3  12  1   
  9   3  19  am  
 10   4   7  1   
 11   4   8  1   
 12   4  18  am  
 13   5  19  2   
 14   6  18  2   
 15   7  38  1   
 16   7  39  1   
 17   7  40  1   
 18   8  35  1   
 19   8  36  1   
 20   8  37  1   
 21   9  10  1   
 22   9  19  1   
 23   9  48  1   
 24  10  11  1   
 25  10  33  1   
 26  10  34  1   
 27  11  31  1   
 28  11  32  1   
 29  12  13  ar  
 30  12  14  ar  
 31  13  15  ar  
 32  13  46  1   
 33  14  16  ar  
 34  14  20  1   
 35  15  17  ar  
 36  15  45  1   
 37  16  17  ar  
 38  16  44  1   
 39  17  18  1   
 40  22  23  1   
 41  23  24  2   
 42  23  25  1   
 43  24  26  1   
 44  24  47  1   
 45  25  27  1   
 46  26  27  2   
 47  26  43  1   
 48  27  28  1   
 49  28  29  2   
 50  28  42  1   
 51  29  41  1   
@<TRIPOS>SUBSTRUCTURE
  1 Q101  19 GROUP 4 **** **** 0

# MOE 2011.10 (io_trps.svl 2011.10)

@<TRIPOS>MOLECULE
FXA101_140
49 51 1 0 0 
SMALL
USER_CHARGES


@<TRIPOS>ATOM
  1 N1       5.7430     8.4500    22.6950 N.am  1 Q101  -0.8960 
  2 S1       6.5090     9.3200    23.8190 S.o2  1 Q101   1.3220 
  3 N2       2.8140     6.6380    22.6090 N.am  1 Q101  -0.3970 
  4 N3      -0.7110     1.1730    23.0210 N.am  1 Q101  -0.4840 
  5 O3       4.1510     6.8020    24.4790 O.2   1 Q101  -0.6040 
  6 O4       0.6560     1.0630    24.7690 O.2   1 Q101  -0.6060 
  7 C7      -2.0730     1.6480    23.3110 C.3   1 Q101   0.0840 
  8 C8      -0.5380     0.2100    21.9200 C.3   1 Q101   0.0840 
  9 C12      4.2980     8.4360    22.6670 C.3   1 Q101   0.1690 
 10 C13      3.7140     8.3280    21.2550 C.3   1 Q101  -0.1080 
 11 C14      2.5220     7.3870    21.3950 C.3   1 Q101   0.1020 
 12 C15      2.1580     5.4070    22.9280 C.ar  1 Q101   0.0330 
 13 C21      2.8440     4.2010    22.9120 C.ar  1 Q101  -0.1060 
 14 C22      0.8060     5.3830    23.2360 C.ar  1 Q101   0.1210 
 15 C24      2.2090     3.0110    23.2030 C.ar  1 Q101  -0.0920 
 16 C26      0.1350     4.2080    23.5320 C.ar  1 Q101  -0.1400 
 17 C27      0.8580     3.0150    23.5180 C.ar  1 Q101  -0.1150 
 18 C28      0.2490     1.6810    23.7990 C.2   1 Q101   0.6760 
 19 C50      3.7700     7.2020    23.3880 C.2   1 Q101   0.6950 
 20 F1       0.1340     6.5460    23.2430 F     1 Q101  -0.1400 
 21 O1       5.7140     9.1530    24.9970 O.2   1 Q101  -0.5930 
 22 CL1     13.8520     7.2780    26.0270 Cl    1 Q101  -0.0550 
 23 C1      12.1380     7.4620    26.1910 C.2   1 Q101   0.0330 
 24 C2      11.3830     7.1150    27.2610 C.2   1 Q101  -0.1460 
 25 S2      11.2390     8.1560    24.9000 S.3   1 Q101   0.0240 
 26 C3      10.0330     7.4060    27.0420 C.2   1 Q101  -0.1130 
 27 C4       9.7720     7.9750    25.8010 C.2   1 Q101  -0.0920 
 28 C5       8.4350     8.3650    25.3390 C.2   1 Q101   0.0810 
 29 C6       8.0760     8.6140    24.0800 C.2   1 Q101  -0.4200 
 30 O2       6.6440    10.6020    23.1850 O.2   1 Q101  -0.5930 
 31 H142     2.4200     6.7150    20.5380 H     1 Q101   0.0600 
 32 H141     1.5920     7.9460    21.5420 H     1 Q101   0.0600 
 33 H132     3.4320     9.3020    20.8440 H     1 Q101   0.0720 
 34 H131     4.4510     7.8850    20.5730 H     1 Q101   0.0720 
 35 H83     -0.7610    -0.7900    22.2870 H     1 Q101   0.0490 
 36 H82     -1.2160     0.4760    21.1040 H     1 Q101   0.0490 
 37 H81      0.4860     0.2660    21.5620 H     1 Q101   0.0490 
 38 H73     -2.1160     2.7220    23.1100 H     1 Q101   0.0490 
 39 H72     -2.8050     1.1190    22.6950 H     1 Q101   0.0490 
 40 H71     -2.3010     1.4860    24.3700 H     1 Q101   0.0490 
 41 H6       8.6940     8.4210    23.2160 H     1 Q101   0.1940 
 42 H5       7.6900     8.3900    26.1340 H     1 Q101   0.1560 
 43 H3       9.2570     7.2220    27.7780 H     1 Q101   0.1600 
 44 H26     -0.9190     4.2280    23.7750 H     1 Q101   0.1600 
 45 H24      2.7620     2.0820    23.1470 H     1 Q101   0.1630 
 46 H21      3.9000     4.1780    22.6530 H     1 Q101   0.1530 
 47 H2      11.7650     6.6770    28.1720 H     1 Q101   0.1720 
 48 H12      3.8580     9.3070    23.1660 H     1 Q101   0.0910 
 49 H1       6.2180     7.6040    22.3700 H     1 Q101   0.4670 
@<TRIPOS>BOND
  1   1   2  am  
  2   1   9  1   
  3   1  49  1   
  4   2  21  2   
  5   2  29  1   
  6   2  30  2   
  7   3  11  1   
  8   3  12  1   
  9   3  19  am  
 10   4   7  1   
 11   4   8  1   
 12   4  18  am  
 13   5  19  2   
 14   6  18  2   
 15   7  38  1   
 16   7  39  1   
 17   7  40  1   
 18   8  35  1   
 19   8  36  1   
 20   8  37  1   
 21   9  10  1   
 22   9  19  1   
 23   9  48  1   
 24  10  11  1   
 25  10  33  1   
 26  10  34  1   
 27  11  31  1   
 28  11  32  1   
 29  12  13  ar  
 30  12  14  ar  
 31  13  15  ar  
 32  13  46  1   
 33  14  16  ar  
 34  14  20  1   
 35  15  17  ar  
 36  15  45  1   
 37  16  17  ar  
 38  16  44  1   
 39  17  18  1   
 40  22  23  1   
 41  23  24  2   
 42  23  25  1   
 43  24  26  1   
 44  24  47  1   
 45  25  27  1   
 46  26  27  2   
 47  26  43  1   
 48  27  28  1   
 49  28  29  2   
 50  28  42  1   
 51  29  41  1   
@<TRIPOS>SUBSTRUCTURE
  1 Q101   5 GROUP 4 **** **** 0

# MOE 2011.10 (io_trps.svl 2011.10)

@<TRIPOS>MOLECULE
FXA101_141
49 51 1 0 0 
SMALL
USER_CHARGES


@<TRIPOS>ATOM
  1 N1       6.5540     7.7100    21.3490 N.am  1 Q101  -0.8960 
  2 S1       7.2890     9.0480    21.8760 S.o2  1 Q101   1.3220 
  3 N2       5.8440     5.4630    18.8360 N.am  1 Q101  -0.3970 
  4 N3       2.3880     0.8850    15.7420 N.am  1 Q101  -0.4840 
  5 O3       4.3200     6.9940    19.6380 O.2   1 Q101  -0.6040 
  6 O4       0.9640     1.7190    17.2320 O.2   1 Q101  -0.6060 
  7 C7       1.2550     0.5070    14.8820 C.3   1 Q101   0.0840 
  8 C8       3.7150     0.3430    15.4100 C.3   1 Q101   0.0840 
  9 C12      6.7220     7.3000    19.9740 C.3   1 Q101   0.1690 
 10 C13      7.8370     6.2680    19.7740 C.3   1 Q101  -0.1080 
 11 C14      7.2860     5.2920    18.7400 C.3   1 Q101   0.1020 
 12 C15      4.9200     4.5020    18.3160 C.ar  1 Q101   0.0330 
 13 C21      4.1080     4.7960    17.2300 C.ar  1 Q101  -0.1060 
 14 C22      4.7910     3.2520    18.9050 C.ar  1 Q101   0.1210 
 15 C24      3.2060     3.8760    16.7380 C.ar  1 Q101  -0.0920 
 16 C26      3.8950     2.3030    18.4390 C.ar  1 Q101  -0.1400 
 17 C27      3.1030     2.6300    17.3380 C.ar  1 Q101  -0.1150 
 18 C28      2.0870     1.7050    16.7540 C.2   1 Q101   0.6760 
 19 C50      5.4640     6.5960    19.4790 C.2   1 Q101   0.6950 
 20 F1       5.5670     2.9640    19.9630 F     1 Q101  -0.1400 
 21 O1       6.5000    10.1160    21.3440 O.2   1 Q101  -0.5930 
 22 CL1      1.4500     5.9970    24.1210 Cl    1 Q101  -0.0550 
 23 C1       2.8840     6.9420    24.3400 C.2   1 Q101   0.0330 
 24 C2       2.9730     8.1590    24.9280 C.2   1 Q101  -0.1460 
 25 S2       4.3900     6.3280    23.7800 S.3   1 Q101   0.0240 
 26 C3       4.2900     8.6260    24.9270 C.2   1 Q101  -0.1130 
 27 C4       5.1970     7.7550    24.3360 C.2   1 Q101  -0.0920 
 28 C5       6.6350     8.0230    24.2120 C.2   1 Q101   0.0810 
 29 C6       7.1930     9.0740    23.6120 C.2   1 Q101  -0.4200 
 30 O2       8.6480     8.8440    21.4590 O.2   1 Q101  -0.5930 
 31 H142     7.5710     4.2570    18.9510 H     1 Q101   0.0600 
 32 H141     7.6040     5.5650    17.7280 H     1 Q101   0.0600 
 33 H132     8.7780     6.7270    19.4560 H     1 Q101   0.0720 
 34 H131     8.0310     5.7350    20.7130 H     1 Q101   0.0720 
 35 H83      3.7990    -0.6620    15.8170 H     1 Q101   0.0490 
 36 H82      3.8300     0.3240    14.3220 H     1 Q101   0.0490 
 37 H81      4.4770     0.9920    15.8340 H     1 Q101   0.0490 
 38 H73      0.8800     1.4070    14.3870 H     1 Q101   0.0490 
 39 H72      1.5660    -0.2320    14.1400 H     1 Q101   0.0490 
 40 H71      0.4500     0.0910    15.4970 H     1 Q101   0.0490 
 41 H6       7.5770     9.9420    24.1270 H     1 Q101   0.1940 
 42 H5       7.2600     7.2890    24.7180 H     1 Q101   0.1560 
 43 H3       4.5870     9.5750    25.3630 H     1 Q101   0.1600 
 44 H26      3.8280     1.3350    18.9190 H     1 Q101   0.1600 
 45 H24      2.5610     4.1480    15.9130 H     1 Q101   0.1630 
 46 H21      4.1660     5.7740    16.7570 H     1 Q101   0.1530 
 47 H2       2.1400     8.7040    25.3520 H     1 Q101   0.1720 
 48 H12      6.8980     8.1450    19.2990 H     1 Q101   0.0910 
 49 H1       5.6650     7.4700    21.7960 H     1 Q101   0.4670 
@<TRIPOS>BOND
  1   1   2  am  
  2   1   9  1   
  3   1  49  1   
  4   2  21  2   
  5   2  29  1   
  6   2  30  2   
  7   3  11  1   
  8   3  12  1   
  9   3  19  am  
 10   4   7  1   
 11   4   8  1   
 12   4  18  am  
 13   5  19  2   
 14   6  18  2   
 15   7  38  1   
 16   7  39  1   
 17   7  40  1   
 18   8  35  1   
 19   8  36  1   
 20   8  37  1   
 21   9  10  1   
 22   9  19  1   
 23   9  48  1   
 24  10  11  1   
 25  10  33  1   
 26  10  34  1   
 27  11  31  1   
 28  11  32  1   
 29  12  13  ar  
 30  12  14  ar  
 31  13  15  ar  
 32  13  46  1   
 33  14  16  ar  
 34  14  20  1   
 35  15  17  ar  
 36  15  45  1   
 37  16  17  ar  
 38  16  44  1   
 39  17  18  1   
 40  22  23  1   
 41  23  24  2   
 42  23  25  1   
 43  24  26  1   
 44  24  47  1   
 45  25  27  1   
 46  26  27  2   
 47  26  43  1   
 48  27  28  1   
 49  28  29  2   
 50  28  42  1   
 51  29  41  1   
@<TRIPOS>SUBSTRUCTURE
  1 Q101  19 GROUP 4 **** **** 0

# MOE 2011.10 (io_trps.svl 2011.10)

@<TRIPOS>MOLECULE
FXA101_142
49 51 1 0 0 
SMALL
USER_CHARGES


@<TRIPOS>ATOM
  1 N1       6.0040     9.9950    21.0080 N.am  1 Q101  -0.8960 
  2 S1       7.5920    10.1640    21.2480 S.o2  1 Q101   1.3220 
  3 N2       3.2020     8.0910    21.6300 N.am  1 Q101  -0.3970 
  4 N3      -3.1400     7.3680    22.6940 N.am  1 Q101  -0.4840 
  5 O3       3.5240     9.2770    19.6800 O.2   1 Q101  -0.6040 
  6 O4      -3.1180     8.1650    20.6190 O.2   1 Q101  -0.6060 
  7 C7      -2.9250     5.9540    23.0370 C.3   1 Q101   0.0840 
  8 C8      -4.0170     8.1630    23.5700 C.3   1 Q101   0.0840 
  9 C12      5.4000     8.6880    21.1320 C.3   1 Q101   0.1690 
 10 C13      5.3470     8.1720    22.5740 C.3   1 Q101  -0.1080 
 11 C14      3.9900     7.4870    22.6940 C.3   1 Q101   0.1020 
 12 C15      1.7730     8.0180    21.5960 C.ar  1 Q101   0.0330 
 13 C21      0.9930     8.7530    22.4780 C.ar  1 Q101  -0.1060 
 14 C22      1.1260     7.1850    20.6950 C.ar  1 Q101   0.1210 
 15 C24     -0.3840     8.6710    22.4580 C.ar  1 Q101  -0.0920 
 16 C26     -0.2540     7.0750    20.6460 C.ar  1 Q101  -0.1400 
 17 C27     -1.0070     7.8380    21.5400 C.ar  1 Q101  -0.1150 
 18 C28     -2.4980     7.7950    21.6030 C.2   1 Q101   0.6760 
 19 C50      3.9410     8.7410    20.6960 C.2   1 Q101   0.6950 
 20 F1       1.8760     6.4630    19.8460 F     1 Q101  -0.1400 
 21 O1       7.8600    11.5220    20.8880 O.2   1 Q101  -0.5930 
 22 CL1     11.5100     6.9680    27.6420 Cl    1 Q101  -0.0550 
 23 C1      10.4390     7.7600    26.5360 C.2   1 Q101   0.0330 
 24 C2       9.1500     8.1090    26.7630 C.2   1 Q101  -0.1460 
 25 S2      11.0100     8.1820    24.9700 S.3   1 Q101   0.0240 
 26 C3       8.5900     8.7310    25.6430 C.2   1 Q101  -0.1130 
 27 C4       9.4640     8.8510    24.5690 C.2   1 Q101  -0.0920 
 28 C5       9.1080     9.4640    23.2840 C.2   1 Q101   0.0810 
 29 C6       7.9130     9.9460    22.9420 C.2   1 Q101  -0.4200 
 30 O2       8.1420     9.0710    20.4960 O.2   1 Q101  -0.5930 
 31 H142     3.5230     7.6570    23.6690 H     1 Q101   0.0600 
 32 H141     4.0710     6.4120    22.5030 H     1 Q101   0.0600 
 33 H132     6.1770     7.5000    22.8070 H     1 Q101   0.0720 
 34 H131     5.3960     9.0120    23.2780 H     1 Q101   0.0720 
 35 H83     -5.0530     7.9840    23.2900 H     1 Q101   0.0490 
 36 H82     -3.8460     7.8670    24.6090 H     1 Q101   0.0490 
 37 H81     -3.7670     9.2140    23.4570 H     1 Q101   0.0490 
 38 H73     -1.8700     5.8130    23.2840 H     1 Q101   0.0490 
 39 H72     -3.5530     5.6630    23.8820 H     1 Q101   0.0490 
 40 H71     -3.1630     5.3250    22.1720 H     1 Q101   0.0490 
 41 H6       7.1300    10.1960    23.6420 H     1 Q101   0.1940 
 42 H5       9.9490     9.5550    22.5970 H     1 Q101   0.1560 
 43 H3       7.5710     9.1040    25.6160 H     1 Q101   0.1600 
 44 H26     -0.7240     6.4200    19.9240 H     1 Q101   0.1600 
 45 H24     -0.9640     9.2280    23.1820 H     1 Q101   0.1630 
 46 H21      1.4650     9.4000    23.2140 H     1 Q101   0.1530 
 47 H2       8.6170     7.9400    27.6880 H     1 Q101   0.1720 
 48 H12      5.8910     7.9340    20.5050 H     1 Q101   0.0910 
 49 H1       5.5710    10.6410    20.3430 H     1 Q101   0.4670 
@<TRIPOS>BOND
  1   1   2  am  
  2   1   9  1   
  3   1  49  1   
  4   2  21  2   
  5   2  29  1   
  6   2  30  2   
  7   3  11  1   
  8   3  12  1   
  9   3  19  am  
 10   4   7  1   
 11   4   8  1   
 12   4  18  am  
 13   5  19  2   
 14   6  18  2   
 15   7  38  1   
 16   7  39  1   
 17   7  40  1   
 18   8  35  1   
 19   8  36  1   
 20   8  37  1   
 21   9  10  1   
 22   9  19  1   
 23   9  48  1   
 24  10  11  1   
 25  10  33  1   
 26  10  34  1   
 27  11  31  1   
 28  11  32  1   
 29  12  13  ar  
 30  12  14  ar  
 31  13  15  ar  
 32  13  46  1   
 33  14  16  ar  
 34  14  20  1   
 35  15  17  ar  
 36  15  45  1   
 37  16  17  ar  
 38  16  44  1   
 39  17  18  1   
 40  22  23  1   
 41  23  24  2   
 42  23  25  1   
 43  24  26  1   
 44  24  47  1   
 45  25  27  1   
 46  26  27  2   
 47  26  43  1   
 48  27  28  1   
 49  28  29  2   
 50  28  42  1   
 51  29  41  1   
@<TRIPOS>SUBSTRUCTURE
  1 Q101  11 GROUP 4 **** **** 0

# MOE 2011.10 (io_trps.svl 2011.10)

@<TRIPOS>MOLECULE
FXA101_143
49 51 1 0 0 
SMALL
USER_CHARGES


@<TRIPOS>ATOM
  1 N1       2.9620    -6.5190    21.0550 N.am  1 Q101  -0.8960 
  2 S1       3.5430    -7.6390    20.0460 S.o2  1 Q101   1.3220 
  3 N2       1.9190    -3.2380    21.1780 N.am  1 Q101  -0.3970 
  4 N3       2.4220     3.0400    22.8670 N.am  1 Q101  -0.4840 
  5 O3       3.9550    -3.8920    20.3200 O.2   1 Q101  -0.6040 
  6 O4       4.4620     2.4960    22.1740 O.2   1 Q101  -0.6060 
  7 C7       2.7760     3.6860    24.1410 C.3   1 Q101   0.0840 
  8 C8       1.1510     3.4260    22.2300 C.3   1 Q101   0.0840 
  9 C12      2.1060    -5.4750    20.5420 C.3   1 Q101   0.1690 
 10 C13      0.8100    -5.2980    21.3400 C.3   1 Q101  -0.1080 
 11 C14      0.5910    -3.7910    21.4030 C.3   1 Q101   0.1020 
 12 C15      2.2550    -1.8880    21.5090 C.ar  1 Q101   0.0330 
 13 C21      2.2050    -0.8790    20.5570 C.ar  1 Q101  -0.1060 
 14 C22      2.6680    -1.5530    22.7900 C.ar  1 Q101   0.1210 
 15 C24      2.5450     0.4210    20.8700 C.ar  1 Q101  -0.0920 
 16 C26      3.0170    -0.2590    23.1420 C.ar  1 Q101  -0.1400 
 17 C27      2.9450     0.7310    22.1620 C.ar  1 Q101  -0.1150 
 18 C28      3.3130     2.1570    22.4070 C.2   1 Q101   0.6760 
 19 C50      2.8020    -4.1240    20.6530 C.2   1 Q101   0.6950 
 20 F1       2.7270    -2.5260    23.7140 F     1 Q101  -0.1400 
 21 O1       2.3820    -8.1660    19.3980 O.2   1 Q101  -0.5930 
 22 CL1      6.8400    -6.1970    12.6880 Cl    1 Q101  -0.0550 
 23 C1       6.3420    -6.2240    14.3460 C.2   1 Q101   0.0330 
 24 C2       6.7920    -5.4250    15.3430 C.2   1 Q101  -0.1460 
 25 S2       5.1490    -7.3570    14.8470 S.3   1 Q101   0.0240 
 26 C3       6.1690    -5.7310    16.5560 C.2   1 Q101  -0.1130 
 27 C4       5.2440    -6.7650    16.4710 C.2   1 Q101  -0.0920 
 28 C5       4.4660    -7.2680    17.6090 C.2   1 Q101   0.0810 
 29 C6       4.5460    -6.8450    18.8700 C.2   1 Q101  -0.4200 
 30 O2       4.3480    -8.4540    20.9130 O.2   1 Q101  -0.5930 
 31 H142     0.1930    -3.4680    22.3700 H     1 Q101   0.0600 
 32 H141    -0.0700    -3.4520    20.5980 H     1 Q101   0.0600 
 33 H132    -0.0350    -5.8250    20.8850 H     1 Q101   0.0720 
 34 H131     0.9340    -5.6930    22.3560 H     1 Q101   0.0720 
 35 H83      0.3410     2.8640    22.6890 H     1 Q101   0.0490 
 36 H82      0.9950     4.5000    22.3670 H     1 Q101   0.0490 
 37 H81      1.2120     3.2110    21.1660 H     1 Q101   0.0490 
 38 H73      3.6800     4.2820    23.9880 H     1 Q101   0.0490 
 39 H72      1.9590     4.3210    24.4910 H     1 Q101   0.0490 
 40 H71      2.9920     2.9200    24.8930 H     1 Q101   0.0490 
 41 H6       5.1990    -6.0550    19.2120 H     1 Q101   0.1940 
 42 H5       3.7310    -8.0240    17.3330 H     1 Q101   0.1560 
 43 H3       6.3720    -5.2000    17.4810 H     1 Q101   0.1600 
 44 H26      3.3270    -0.0340    24.1540 H     1 Q101   0.1600 
 45 H24      2.5310     1.1780    20.0980 H     1 Q101   0.1630 
 46 H21      1.9080    -1.1080    19.5360 H     1 Q101   0.1530 
 47 H2       7.5310    -4.6450    15.2240 H     1 Q101   0.1720 
 48 H12      1.8540    -5.6150    19.4850 H     1 Q101   0.0910 
 49 H1       3.5470    -6.2820    21.8600 H     1 Q101   0.4670 
@<TRIPOS>BOND
  1   1   2  am  
  2   1   9  1   
  3   1  49  1   
  4   2  21  2   
  5   2  29  1   
  6   2  30  2   
  7   3  11  1   
  8   3  12  1   
  9   3  19  am  
 10   4   7  1   
 11   4   8  1   
 12   4  18  am  
 13   5  19  2   
 14   6  18  2   
 15   7  38  1   
 16   7  39  1   
 17   7  40  1   
 18   8  35  1   
 19   8  36  1   
 20   8  37  1   
 21   9  10  1   
 22   9  19  1   
 23   9  48  1   
 24  10  11  1   
 25  10  33  1   
 26  10  34  1   
 27  11  31  1   
 28  11  32  1   
 29  12  13  ar  
 30  12  14  ar  
 31  13  15  ar  
 32  13  46  1   
 33  14  16  ar  
 34  14  20  1   
 35  15  17  ar  
 36  15  45  1   
 37  16  17  ar  
 38  16  44  1   
 39  17  18  1   
 40  22  23  1   
 41  23  24  2   
 42  23  25  1   
 43  24  26  1   
 44  24  47  1   
 45  25  27  1   
 46  26  27  2   
 47  26  43  1   
 48  27  28  1   
 49  28  29  2   
 50  28  42  1   
 51  29  41  1   
@<TRIPOS>SUBSTRUCTURE
  1 Q101   5 GROUP 4 **** **** 0

# MOE 2011.10 (io_trps.svl 2011.10)

@<TRIPOS>MOLECULE
FXA101_144
49 51 1 0 0 
SMALL
USER_CHARGES


@<TRIPOS>ATOM
  1 N1       4.1810     6.1450    15.5060 N.am  1 Q101  -0.8960 
  2 S1       4.6850     6.0590    13.9740 S.o2  1 Q101   1.3220 
  3 N2       1.7830     6.9740    17.8360 N.am  1 Q101  -0.3970 
  4 N3       1.6040     8.2540    24.2020 N.am  1 Q101  -0.4840 
  5 O3       3.8120     8.0520    17.6640 O.2   1 Q101  -0.6040 
  6 O4      -0.5470     8.1150    23.6620 O.2   1 Q101  -0.6060 
  7 C7       1.9580     9.6510    24.4980 C.3   1 Q101   0.0840 
  8 C8       2.3450     7.1940    24.9060 C.3   1 Q101   0.0840 
  9 C12      2.9040     6.7520    15.8030 C.3   1 Q101   0.1690 
 10 C13      1.7420     5.7540    15.8340 C.3   1 Q101  -0.1080 
 11 C14      0.8730     6.2010    17.0030 C.3   1 Q101   0.1020 
 12 C15      1.5000     7.2790    19.2050 C.ar  1 Q101   0.0330 
 13 C21      1.8660     6.4140    20.2270 C.ar  1 Q101  -0.1060 
 14 C22      0.8220     8.4400    19.5470 C.ar  1 Q101   0.1210 
 15 C24      1.5790     6.6990    21.5460 C.ar  1 Q101  -0.0920 
 16 C26      0.5160     8.7590    20.8600 C.ar  1 Q101  -0.1400 
 17 C27      0.9090     7.8720    21.8620 C.ar  1 Q101  -0.1150 
 18 C28      0.6220     8.0900    23.3110 C.2   1 Q101   0.6760 
 19 C50      2.9220     7.3520    17.2040 C.2   1 Q101   0.6950 
 20 F1       0.4560     9.2760    18.5620 F     1 Q101  -0.1400 
 21 O1       6.1100     6.0010    14.0740 O.2   1 Q101  -0.5930 
 22 CL1      6.0220     6.7530     7.4950 Cl    1 Q101  -0.0550 
 23 C1       5.5050     5.7610     8.8160 C.2   1 Q101   0.0330 
 24 C2       5.9030     4.4940     9.0850 C.2   1 Q101  -0.1460 
 25 S2       4.3730     6.3900     9.9480 S.3   1 Q101   0.0240 
 26 C3       5.2770     4.0000    10.2320 C.2   1 Q101  -0.1130 
 27 C4       4.4040     4.9010    10.8310 C.2   1 Q101  -0.0920 
 28 C5       3.6280     4.6130    12.0430 C.2   1 Q101   0.0810 
 29 C6       4.0970     4.5720    13.2900 C.2   1 Q101  -0.4200 
 30 O2       4.0240     7.1780    13.3640 O.2   1 Q101  -0.5930 
 31 H142     0.4580     5.3560    17.5600 H     1 Q101   0.0600 
 32 H141     0.0630     6.8570    16.6670 H     1 Q101   0.0600 
 33 H132     1.1910     5.7260    14.8890 H     1 Q101   0.0720 
 34 H131     2.1190     4.7410    16.0240 H     1 Q101   0.0720 
 35 H83      3.2860     7.0170    24.3900 H     1 Q101   0.0490 
 36 H82      2.5280     7.5100    25.9360 H     1 Q101   0.0490 
 37 H81      1.7400     6.2910    24.9160 H     1 Q101   0.0490 
 38 H73      1.0970    10.1350    24.9670 H     1 Q101   0.0490 
 39 H72      2.8250     9.6970    25.1620 H     1 Q101   0.0490 
 40 H71      2.1840    10.1790    23.5650 H     1 Q101   0.0490 
 41 H6       4.1250     3.6860    13.9060 H     1 Q101   0.1940 
 42 H5       2.5640     4.4760    11.8570 H     1 Q101   0.1560 
 43 H3       5.4650     3.0100    10.6350 H     1 Q101   0.1600 
 44 H26     -0.0070     9.6780    21.0900 H     1 Q101   0.1600 
 45 H24      1.8450     5.9890    22.3170 H     1 Q101   0.1630 
 46 H21      2.3790     5.4830    19.9950 H     1 Q101   0.1530 
 47 H2       6.6170     3.9320     8.4980 H     1 Q101   0.1720 
 48 H12      2.6530     7.5660    15.1130 H     1 Q101   0.0910 
 49 H1       4.9070     6.2260    16.2220 H     1 Q101   0.4670 
@<TRIPOS>BOND
  1   1   2  am  
  2   1   9  1   
  3   1  49  1   
  4   2  21  2   
  5   2  29  1   
  6   2  30  2   
  7   3  11  1   
  8   3  12  1   
  9   3  19  am  
 10   4   7  1   
 11   4   8  1   
 12   4  18  am  
 13   5  19  2   
 14   6  18  2   
 15   7  38  1   
 16   7  39  1   
 17   7  40  1   
 18   8  35  1   
 19   8  36  1   
 20   8  37  1   
 21   9  10  1   
 22   9  19  1   
 23   9  48  1   
 24  10  11  1   
 25  10  33  1   
 26  10  34  1   
 27  11  31  1   
 28  11  32  1   
 29  12  13  ar  
 30  12  14  ar  
 31  13  15  ar  
 32  13  46  1   
 33  14  16  ar  
 34  14  20  1   
 35  15  17  ar  
 36  15  45  1   
 37  16  17  ar  
 38  16  44  1   
 39  17  18  1   
 40  22  23  1   
 41  23  24  2   
 42  23  25  1   
 43  24  26  1   
 44  24  47  1   
 45  25  27  1   
 46  26  27  2   
 47  26  43  1   
 48  27  28  1   
 49  28  29  2   
 50  28  42  1   
 51  29  41  1   
@<TRIPOS>SUBSTRUCTURE
  1 Q101  19 GROUP 4 **** **** 0

# MOE 2011.10 (io_trps.svl 2011.10)

@<TRIPOS>MOLECULE
FXA101_145
49 51 1 0 0 
SMALL
USER_CHARGES


@<TRIPOS>ATOM
  1 N1       5.1020    10.2050    17.5040 N.am  1 Q101  -0.8960 
  2 S1       4.2610    10.7670    16.2440 S.o2  1 Q101   1.3220 
  3 N2       5.9640    10.4680    20.8290 N.am  1 Q101  -0.3970 
  4 N3      10.4380     8.5160    25.0780 N.am  1 Q101  -0.4840 
  5 O3       7.5000    10.1520    19.1400 O.2   1 Q101  -0.6040 
  6 O4       8.5560     7.8910    26.0830 O.2   1 Q101  -0.6060 
  7 C7      11.1480     8.0400    26.2760 C.3   1 Q101   0.0840 
  8 C8      11.2430     9.0590    23.9710 C.3   1 Q101   0.0840 
  9 C12      5.2680    11.0330    18.6760 C.3   1 Q101   0.1690 
 10 C13      4.0480    11.0350    19.6030 C.3   1 Q101  -0.1080 
 11 C14      4.6270    11.0130    21.0130 C.3   1 Q101   0.1020 
 12 C15      6.7320     9.9340    21.9120 C.ar  1 Q101   0.0330 
 13 C21      7.5400    10.7480    22.6920 C.ar  1 Q101  -0.1060 
 14 C22      6.7100     8.5760    22.1940 C.ar  1 Q101   0.1210 
 15 C24      8.2940    10.2310    23.7260 C.ar  1 Q101  -0.0920 
 16 C26      7.4530     8.0210    23.2240 C.ar  1 Q101  -0.1400 
 17 C27      8.2460     8.8710    23.9950 C.ar  1 Q101  -0.1150 
 18 C28      9.1080     8.3960    25.1180 C.2   1 Q101   0.6760 
 19 C50      6.3990    10.4950    19.5440 C.2   1 Q101   0.6950 
 20 F1       5.9360     7.7810    21.4360 F     1 Q101  -0.1400 
 21 O1       4.0930    12.1590    16.5250 O.2   1 Q101  -0.5930 
 22 CL1      2.7290     5.4960    12.1420 Cl    1 Q101  -0.0550 
 23 C1       3.8620     6.3900    13.0990 C.2   1 Q101   0.0330 
 24 C2       4.7590     5.8830    13.9790 C.2   1 Q101  -0.1460 
 25 S2       3.9110     8.1030    12.9630 S.3   1 Q101   0.0240 
 26 C3       5.5110     6.9000    14.5750 C.2   1 Q101  -0.1130 
 27 C4       5.1780     8.1770    14.1400 C.2   1 Q101  -0.0920 
 28 C5       5.8240     9.4040    14.6210 C.2   1 Q101   0.0810 
 29 C6       5.2340    10.5830    14.8150 C.2   1 Q101  -0.4200 
 30 O2       3.1370     9.8740    16.1950 O.2   1 Q101  -0.5930 
 31 H142     4.0420    10.3860    21.6930 H     1 Q101   0.0600 
 32 H141     4.7140    12.0240    21.4220 H     1 Q101   0.0600 
 33 H132     3.3960    11.8970    19.4320 H     1 Q101   0.0720 
 34 H131     3.4470    10.1320    19.4390 H     1 Q101   0.0720 
 35 H83     11.4840    10.0970    24.1860 H     1 Q101   0.0490 
 36 H82     12.1580     8.4680    23.8720 H     1 Q101   0.0490 
 37 H81     10.6710     8.9810    23.0500 H     1 Q101   0.0490 
 38 H73     10.9850     6.9630    26.3700 H     1 Q101   0.0490 
 39 H72     12.2170     8.2560    26.2000 H     1 Q101   0.0490 
 40 H71     10.7380     8.5300    27.1650 H     1 Q101   0.0490 
 41 H6       5.3280    11.4330    14.1550 H     1 Q101   0.1940 
 42 H5       6.8750     9.2730    14.8770 H     1 Q101   0.1560 
 43 H3       6.2970     6.7130    15.3000 H     1 Q101   0.1600 
 44 H26      7.4040     6.9580    23.4200 H     1 Q101   0.1600 
 45 H24      8.9420    10.8850    24.2940 H     1 Q101   0.1630 
 46 H21      7.6010    11.8140    22.4860 H     1 Q101   0.1530 
 47 H2       4.8900     4.8320    14.1940 H     1 Q101   0.1720 
 48 H12      5.5250    12.0700    18.4280 H     1 Q101   0.0910 
 49 H1       5.8580     9.5490    17.2930 H     1 Q101   0.4670 
@<TRIPOS>BOND
  1   1   2  am  
  2   1   9  1   
  3   1  49  1   
  4   2  21  2   
  5   2  29  1   
  6   2  30  2   
  7   3  11  1   
  8   3  12  1   
  9   3  19  am  
 10   4   7  1   
 11   4   8  1   
 12   4  18  am  
 13   5  19  2   
 14   6  18  2   
 15   7  38  1   
 16   7  39  1   
 17   7  40  1   
 18   8  35  1   
 19   8  36  1   
 20   8  37  1   
 21   9  10  1   
 22   9  19  1   
 23   9  48  1   
 24  10  11  1   
 25  10  33  1   
 26  10  34  1   
 27  11  31  1   
 28  11  32  1   
 29  12  13  ar  
 30  12  14  ar  
 31  13  15  ar  
 32  13  46  1   
 33  14  16  ar  
 34  14  20  1   
 35  15  17  ar  
 36  15  45  1   
 37  16  17  ar  
 38  16  44  1   
 39  17  18  1   
 40  22  23  1   
 41  23  24  2   
 42  23  25  1   
 43  24  26  1   
 44  24  47  1   
 45  25  27  1   
 46  26  27  2   
 47  26  43  1   
 48  27  28  1   
 49  28  29  2   
 50  28  42  1   
 51  29  41  1   
@<TRIPOS>SUBSTRUCTURE
  1 Q101  19 GROUP 4 **** **** 0

# MOE 2011.10 (io_trps.svl 2011.10)

@<TRIPOS>MOLECULE
FXA101_146
49 51 1 0 0 
SMALL
USER_CHARGES


@<TRIPOS>ATOM
  1 N1       6.2810     8.5880    22.3090 N.am  1 Q101  -0.8960 
  2 S1       6.7120     9.5700    23.5170 S.o2  1 Q101   1.3220 
  3 N2       6.2950     5.3660    21.0910 N.am  1 Q101  -0.3970 
  4 N3       9.3440     1.2000    17.0680 N.am  1 Q101  -0.4840 
  5 O3       8.2040     6.6270    21.3680 O.2   1 Q101  -0.6040 
  6 O4       7.4140     1.6740    16.0730 O.2   1 Q101  -0.6060 
  7 C7       9.6680     0.3870    15.8860 C.3   1 Q101   0.0840 
  8 C8      10.3360     1.2630    18.1540 C.3   1 Q101   0.0840 
  9 C12      6.1400     7.1720    22.5580 C.3   1 Q101   0.1690 
 10 C13      4.7290     6.6400    22.2850 C.3   1 Q101  -0.1080 
 11 C14      4.9440     5.2810    21.6280 C.3   1 Q101   0.1020 
 12 C15      6.7810     4.4670    20.0890 C.ar  1 Q101   0.0330 
 13 C21      6.8990     4.8620    18.7640 C.ar  1 Q101  -0.1060 
 14 C22      7.1240     3.1630    20.4130 C.ar  1 Q101   0.1210 
 15 C24      7.3520     3.9910    17.7940 C.ar  1 Q101  -0.0920 
 16 C26      7.5810     2.2600    19.4660 C.ar  1 Q101  -0.1400 
 17 C27      7.6970     2.6940    18.1450 C.ar  1 Q101  -0.1150 
 18 C28      8.1580     1.8150    17.0300 C.2   1 Q101   0.6760 
 19 C50      7.0310     6.3800    21.6090 C.2   1 Q101   0.6950 
 20 F1       7.0020     2.7720    21.6920 F     1 Q101  -0.1400 
 21 O1       5.8510     9.1990    24.5970 O.2   1 Q101  -0.5930 
 22 CL1     13.8440     7.2830    26.2210 Cl    1 Q101  -0.0550 
 23 C1      12.1360     7.5660    26.2530 C.2   1 Q101   0.0330 
 24 C2      11.2580     7.1310    27.1880 C.2   1 Q101  -0.1460 
 25 S2      11.4150     8.4940    24.9980 S.3   1 Q101   0.0240 
 26 C3       9.9570     7.5460    26.8910 C.2   1 Q101  -0.1130 
 27 C4       9.8560     8.2980    25.7260 C.2   1 Q101  -0.0920 
 28 C5       8.5970     8.8430    25.2050 C.2   1 Q101   0.0810 
 29 C6       8.3580     9.2140    23.9480 C.2   1 Q101  -0.4200 
 30 O2       6.6300    10.8680    22.9100 O.2   1 Q101  -0.5930 
 31 H142     4.2200     5.0850    20.8310 H     1 Q101   0.0600 
 32 H141     4.9110     4.4730    22.3660 H     1 Q101   0.0600 
 33 H132     4.1250     6.5730    23.1940 H     1 Q101   0.0720 
 34 H131     4.2030     7.3040    21.5890 H     1 Q101   0.0720 
 35 H83     10.2280     0.3830    18.7840 H     1 Q101   0.0490 
 36 H82     11.3390     1.2980    17.7180 H     1 Q101   0.0490 
 37 H81     10.1700     2.1690    18.7300 H     1 Q101   0.0490 
 38 H73      9.7460     1.0500    15.0200 H     1 Q101   0.0490 
 39 H72     10.6070    -0.1520    16.0350 H     1 Q101   0.0490 
 40 H71      8.8610    -0.3300    15.6990 H     1 Q101   0.0490 
 41 H6       9.1150     9.3210    23.1840 H     1 Q101   0.1940 
 42 H5       7.7990     8.8810    25.9460 H     1 Q101   0.1560 
 43 H3       9.1010     7.3190    27.5180 H     1 Q101   0.1600 
 44 H26      7.8460     1.2520    19.7570 H     1 Q101   0.1600 
 45 H24      7.3990     4.3160    16.7630 H     1 Q101   0.1630 
 46 H21      6.6180     5.8700    18.4680 H     1 Q101   0.1530 
 47 H2      11.5200     6.5450    28.0580 H     1 Q101   0.1720 
 48 H12      6.4320     6.8900    23.5760 H     1 Q101   0.0910 
 49 H1       6.5770     8.8630    21.3690 H     1 Q101   0.4670 
@<TRIPOS>BOND
  1   1   2  am  
  2   1   9  1   
  3   1  49  1   
  4   2  21  2   
  5   2  29  1   
  6   2  30  2   
  7   3  11  1   
  8   3  12  1   
  9   3  19  am  
 10   4   7  1   
 11   4   8  1   
 12   4  18  am  
 13   5  19  2   
 14   6  18  2   
 15   7  38  1   
 16   7  39  1   
 17   7  40  1   
 18   8  35  1   
 19   8  36  1   
 20   8  37  1   
 21   9  10  1   
 22   9  19  1   
 23   9  48  1   
 24  10  11  1   
 25  10  33  1   
 26  10  34  1   
 27  11  31  1   
 28  11  32  1   
 29  12  13  ar  
 30  12  14  ar  
 31  13  15  ar  
 32  13  46  1   
 33  14  16  ar  
 34  14  20  1   
 35  15  17  ar  
 36  15  45  1   
 37  16  17  ar  
 38  16  44  1   
 39  17  18  1   
 40  22  23  1   
 41  23  24  2   
 42  23  25  1   
 43  24  26  1   
 44  24  47  1   
 45  25  27  1   
 46  26  27  2   
 47  26  43  1   
 48  27  28  1   
 49  28  29  2   
 50  28  42  1   
 51  29  41  1   
@<TRIPOS>SUBSTRUCTURE
  1 Q101   5 GROUP 4 **** **** 0

# MOE 2011.10 (io_trps.svl 2011.10)

@<TRIPOS>MOLECULE
FXA101_147
49 51 1 0 0 
SMALL
USER_CHARGES


@<TRIPOS>ATOM
  1 N1       5.8000     9.8880    23.0940 N.am  1 Q101  -0.8960 
  2 S1       7.1490     9.3350    23.7900 S.o2  1 Q101   1.3220 
  3 N2       2.3910     9.5270    23.4260 N.am  1 Q101  -0.3970 
  4 N3      -3.7530    11.4840    24.0330 N.am  1 Q101  -0.4840 
  5 O3       3.3840    10.6490    21.6750 O.2   1 Q101  -0.6040 
  6 O4      -2.8890    13.0710    22.7390 O.2   1 Q101  -0.6060 
  7 C7      -4.3500    12.3560    25.0570 C.3   1 Q101   0.0840 
  8 C8      -4.3190    10.1360    23.8630 C.3   1 Q101   0.0840 
  9 C12      4.6350     9.0380    23.0220 C.3   1 Q101   0.1690 
 10 C13      4.2350     8.4300    24.3700 C.3   1 Q101  -0.1080 
 11 C14      2.7120     8.4820    24.3870 C.3   1 Q101   0.1020 
 12 C15      1.1100    10.1630    23.3820 C.ar  1 Q101   0.0330 
 13 C21      0.5700    10.7720    24.5060 C.ar  1 Q101  -0.1060 
 14 C22      0.3580    10.1640    22.2160 C.ar  1 Q101   0.1210 
 15 C24     -0.6720    11.3720    24.4700 C.ar  1 Q101  -0.0920 
 16 C26     -0.8930    10.7550    22.1420 C.ar  1 Q101  -0.1400 
 17 C27     -1.4000    11.3680    23.2890 C.ar  1 Q101  -0.1150 
 18 C28     -2.7420    12.0220    23.3450 C.2   1 Q101   0.6760 
 19 C50      3.4170     9.8500    22.6000 C.2   1 Q101   0.6950 
 20 F1       0.8710     9.5670    21.1280 F     1 Q101  -0.1400 
 21 O1       8.1520    10.2850    23.4190 O.2   1 Q101  -0.5930 
 22 CL1     12.9370     7.8790    24.7160 Cl    1 Q101  -0.0550 
 23 C1      11.4120     7.8960    25.5370 C.2   1 Q101   0.0330 
 24 C2      11.1540     7.4230    26.7800 C.2   1 Q101  -0.1460 
 25 S2      10.0420     8.5750    24.7510 S.3   1 Q101   0.0240 
 26 C3       9.8100     7.6010    27.1180 C.2   1 Q101  -0.1130 
 27 C4       9.0530     8.2120    26.1250 C.2   1 Q101  -0.0920 
 28 C5       7.6200     8.5030    26.2440 C.2   1 Q101   0.0810 
 29 C6       6.9280     9.3780    25.5140 C.2   1 Q101  -0.4200 
 30 O2       7.2020     7.9750    23.3330 O.2   1 Q101  -0.5930 
 31 H142     2.3150     8.7290    25.3770 H     1 Q101   0.0600 
 32 H141     2.2790     7.5390    24.0380 H     1 Q101   0.0600 
 33 H132     4.6200     7.4140    24.5010 H     1 Q101   0.0720 
 34 H131     4.6320     9.0390    25.1920 H     1 Q101   0.0720 
 35 H83     -3.8890     9.4740    24.6120 H     1 Q101   0.0490 
 36 H82     -5.4050    10.1880    23.9780 H     1 Q101   0.0490 
 37 H81     -4.0870     9.7810    22.8620 H     1 Q101   0.0490 
 38 H73     -4.8020    13.2170    24.5580 H     1 Q101   0.0490 
 39 H72     -5.1040    11.8140    25.6330 H     1 Q101   0.0490 
 40 H71     -3.5670    12.7200    25.7320 H     1 Q101   0.0490 
 41 H6       6.2340    10.1000    25.9180 H     1 Q101   0.1940 
 42 H5       7.1080     7.8820    26.9780 H     1 Q101   0.1560 
 43 H3       9.3920     7.3070    28.0760 H     1 Q101   0.1600 
 44 H26     -1.4480    10.7430    21.2140 H     1 Q101   0.1600 
 45 H24     -1.0830    11.8080    25.3710 H     1 Q101   0.1630 
 46 H21      1.1200    10.7720    25.4430 H     1 Q101   0.1530 
 47 H2      11.8860     6.9720    27.4360 H     1 Q101   0.1720 
 48 H12      4.7460     8.2300    22.2890 H     1 Q101   0.0910 
 49 H1       5.9220    10.5680    22.3390 H     1 Q101   0.4670 
@<TRIPOS>BOND
  1   1   2  am  
  2   1   9  1   
  3   1  49  1   
  4   2  21  2   
  5   2  29  1   
  6   2  30  2   
  7   3  11  1   
  8   3  12  1   
  9   3  19  am  
 10   4   7  1   
 11   4   8  1   
 12   4  18  am  
 13   5  19  2   
 14   6  18  2   
 15   7  38  1   
 16   7  39  1   
 17   7  40  1   
 18   8  35  1   
 19   8  36  1   
 20   8  37  1   
 21   9  10  1   
 22   9  19  1   
 23   9  48  1   
 24  10  11  1   
 25  10  33  1   
 26  10  34  1   
 27  11  31  1   
 28  11  32  1   
 29  12  13  ar  
 30  12  14  ar  
 31  13  15  ar  
 32  13  46  1   
 33  14  16  ar  
 34  14  20  1   
 35  15  17  ar  
 36  15  45  1   
 37  16  17  ar  
 38  16  44  1   
 39  17  18  1   
 40  22  23  1   
 41  23  24  2   
 42  23  25  1   
 43  24  26  1   
 44  24  47  1   
 45  25  27  1   
 46  26  27  2   
 47  26  43  1   
 48  27  28  1   
 49  28  29  2   
 50  28  42  1   
 51  29  41  1   
@<TRIPOS>SUBSTRUCTURE
  1 Q101   3 GROUP 4 **** **** 0

# MOE 2011.10 (io_trps.svl 2011.10)

@<TRIPOS>MOLECULE
FXA101_148
49 51 1 0 0 
SMALL
USER_CHARGES


@<TRIPOS>ATOM
  1 N1       5.8070     8.3720    22.9790 N.am  1 Q101  -0.8960 
  2 S1       6.6100     9.0310    24.2160 S.o2  1 Q101   1.3220 
  3 N2       2.9480     8.1390    21.0710 N.am  1 Q101  -0.3970 
  4 N3      -1.5100     3.7940    19.0940 N.am  1 Q101  -0.4840 
  5 O3       3.3070     6.8970    22.9790 O.2   1 Q101  -0.6040 
  6 O4      -0.8060     4.7710    17.2260 O.2   1 Q101  -0.6060 
  7 C7      -1.2240     2.3870    18.7760 C.3   1 Q101   0.0840 
  8 C8      -2.5640     4.0750    20.0830 C.3   1 Q101   0.0840 
  9 C12      4.5560     8.9540    22.5510 C.3   1 Q101   0.1690 
 10 C13      4.6600     9.7340    21.2360 C.3   1 Q101  -0.1080 
 11 C14      3.3800     9.3970    20.4800 C.3   1 Q101   0.1020 
 12 C15      2.0020     7.2750    20.4340 C.ar  1 Q101   0.0330 
 13 C21      2.4140     6.1620    19.7150 C.ar  1 Q101  -0.1060 
 14 C22      0.6430     7.5450    20.4940 C.ar  1 Q101   0.1210 
 15 C24      1.5030     5.3370    19.0860 C.ar  1 Q101  -0.0920 
 16 C26     -0.3000     6.7410    19.8750 C.ar  1 Q101  -0.1400 
 17 C27      0.1490     5.6230    19.1700 C.ar  1 Q101  -0.1150 
 18 C28     -0.7630     4.6900    18.4440 C.2   1 Q101   0.6760 
 19 C50      3.5400     7.8570    22.2590 C.2   1 Q101   0.6950 
 20 F1       0.2400     8.6270    21.1800 F     1 Q101  -0.1400 
 21 O1       5.8000     8.7380    25.3580 O.2   1 Q101  -0.5930 
 22 CL1     14.0810     7.3530    26.0350 Cl    1 Q101  -0.0550 
 23 C1      12.3700     7.4160    26.2930 C.2   1 Q101   0.0330 
 24 C2      11.7090     7.1160    27.4370 C.2   1 Q101  -0.1460 
 25 S2      11.3440     7.9070    25.0040 S.3   1 Q101   0.0240 
 26 C3      10.3300     7.2770    27.2800 C.2   1 Q101  -0.1130 
 27 C4       9.9510     7.7000    26.0120 C.2   1 Q101  -0.0920 
 28 C5       8.5610     7.9360    25.6030 C.2   1 Q101   0.0810 
 29 C6       8.1360     8.2140    24.3710 C.2   1 Q101  -0.4200 
 30 O2       6.8150    10.3820    23.7730 O.2   1 Q101  -0.5930 
 31 H142     3.5500     9.2840    19.4040 H     1 Q101   0.0600 
 32 H141     2.6050    10.1510    20.6560 H     1 Q101   0.0600 
 33 H132     4.7800    10.8090    21.3970 H     1 Q101   0.0720 
 34 H131     5.5270     9.3890    20.6600 H     1 Q101   0.0720 
 35 H83     -3.5330     4.0370    19.5890 H     1 Q101   0.0490 
 36 H82     -2.5140     3.3280    20.8810 H     1 Q101   0.0490 
 37 H81     -2.3920     5.0600    20.5110 H     1 Q101   0.0490 
 38 H73     -0.2040     2.1590    19.0980 H     1 Q101   0.0490 
 39 H72     -1.9350     1.7260    19.2780 H     1 Q101   0.0490 
 40 H71     -1.2860     2.2350    17.6930 H     1 Q101   0.0490 
 41 H6       8.6800     7.9800    23.4670 H     1 Q101   0.1940 
 42 H5       7.8420     7.8110    26.4120 H     1 Q101   0.1560 
 43 H3       9.6150     7.1050    28.0790 H     1 Q101   0.1600 
 44 H26     -1.3530     6.9780    19.9500 H     1 Q101   0.1600 
 45 H24      1.8560     4.4970    18.5030 H     1 Q101   0.1630 
 46 H21      3.4720     5.9310    19.6270 H     1 Q101   0.1530 
 47 H2      12.1790     6.8010    28.3580 H     1 Q101   0.1720 
 48 H12      4.1100     9.6040    23.3130 H     1 Q101   0.0910 
 49 H1       5.9130     7.3630    22.8510 H     1 Q101   0.4670 
@<TRIPOS>BOND
  1   1   2  am  
  2   1   9  1   
  3   1  49  1   
  4   2  21  2   
  5   2  29  1   
  6   2  30  2   
  7   3  11  1   
  8   3  12  1   
  9   3  19  am  
 10   4   7  1   
 11   4   8  1   
 12   4  18  am  
 13   5  19  2   
 14   6  18  2   
 15   7  38  1   
 16   7  39  1   
 17   7  40  1   
 18   8  35  1   
 19   8  36  1   
 20   8  37  1   
 21   9  10  1   
 22   9  19  1   
 23   9  48  1   
 24  10  11  1   
 25  10  33  1   
 26  10  34  1   
 27  11  31  1   
 28  11  32  1   
 29  12  13  ar  
 30  12  14  ar  
 31  13  15  ar  
 32  13  46  1   
 33  14  16  ar  
 34  14  20  1   
 35  15  17  ar  
 36  15  45  1   
 37  16  17  ar  
 38  16  44  1   
 39  17  18  1   
 40  22  23  1   
 41  23  24  2   
 42  23  25  1   
 43  24  26  1   
 44  24  47  1   
 45  25  27  1   
 46  26  27  2   
 47  26  43  1   
 48  27  28  1   
 49  28  29  2   
 50  28  42  1   
 51  29  41  1   
@<TRIPOS>SUBSTRUCTURE
  1 Q101  19 GROUP 4 **** **** 0

# MOE 2011.10 (io_trps.svl 2011.10)

@<TRIPOS>MOLECULE
FXA101_149
49 51 1 0 0 
SMALL
USER_CHARGES


@<TRIPOS>ATOM
  1 N1       5.3460    11.9960    16.5100 N.am  1 Q101  -0.8960 
  2 S1       4.3180    12.7970    15.5560 S.o2  1 Q101   1.3220 
  3 N2       5.9200    10.1280    19.3470 N.am  1 Q101  -0.3970 
  4 N3       8.7520     8.6320    25.0040 N.am  1 Q101  -0.4840 
  5 O3       5.8710    12.4320    19.3320 O.2   1 Q101  -0.6040 
  6 O4      10.0820    10.2070    24.1720 O.2   1 Q101  -0.6060 
  7 C7       9.7710     8.4020    26.0410 C.3   1 Q101   0.0840 
  8 C8       7.4710     7.9180    25.1270 C.3   1 Q101   0.0840 
  9 C12      4.8300    11.1290    17.5440 C.3   1 Q101   0.1690 
 10 C13      5.0120     9.6380    17.2420 C.3   1 Q101  -0.1080 
 11 C14      5.3920     9.0110    18.5780 C.3   1 Q101   0.1020 
 12 C15      6.7250     9.9440    20.5160 C.ar  1 Q101   0.0330 
 13 C21      6.2810    10.3490    21.7670 C.ar  1 Q101  -0.1060 
 14 C22      7.9880     9.3770    20.4260 C.ar  1 Q101   0.1210 
 15 C24      7.0630    10.1870    22.8930 C.ar  1 Q101  -0.0920 
 16 C26      8.8010     9.1990    21.5330 C.ar  1 Q101  -0.1400 
 17 C27      8.3180     9.6080    22.7770 C.ar  1 Q101  -0.1150 
 18 C28      9.1020     9.4900    24.0410 C.2   1 Q101   0.6760 
 19 C50      5.5990    11.3460    18.8420 C.2   1 Q101   0.6950 
 20 F1       8.4260     8.9920    19.2160 F     1 Q101  -0.1400 
 21 O1       5.1500    13.3730    14.5460 O.2   1 Q101  -0.5930 
 22 CL1      4.6780    14.2110     9.0900 Cl    1 Q101  -0.0550 
 23 C1       3.9700    13.9290    10.6450 C.2   1 Q101   0.0330 
 24 C2       3.5740    14.8660    11.5400 C.2   1 Q101  -0.1460 
 25 S2       3.7090    12.3120    11.1700 S.3   1 Q101   0.0240 
 26 C3       3.0490    14.2750    12.6920 C.2   1 Q101  -0.1130 
 27 C4       3.0490    12.8860    12.6640 C.2   1 Q101  -0.0920 
 28 C5       2.5520    12.0400    13.7560 C.2   1 Q101   0.0810 
 29 C6       3.2430    11.6440    14.8250 C.2   1 Q101  -0.4200 
 30 O2       3.6000    13.6190    16.4900 O.2   1 Q101  -0.5930 
 31 H142     6.1440     8.2230    18.4680 H     1 Q101   0.0600 
 32 H141     4.5120     8.6140    19.0940 H     1 Q101   0.0600 
 33 H132     4.1130     9.1880    16.8090 H     1 Q101   0.0720 
 34 H131     5.8290     9.4950    16.5240 H     1 Q101   0.0720 
 35 H83      7.5870     6.9130    24.7270 H     1 Q101   0.0490 
 36 H82      7.1850     7.8770    26.1820 H     1 Q101   0.0490 
 37 H81      6.7100     8.4640    24.5760 H     1 Q101   0.0490 
 38 H73      9.9390     9.3400    26.5760 H     1 Q101   0.0490 
 39 H72      9.4440     7.6240    26.7350 H     1 Q101   0.0490 
 40 H71     10.7120     8.1000    25.5710 H     1 Q101   0.0490 
 41 H6       3.1700    10.6640    15.2730 H     1 Q101   0.1940 
 42 H5       1.4990    11.7800    13.6610 H     1 Q101   0.1560 
 43 H3       2.6580    14.8450    13.5300 H     1 Q101   0.1600 
 44 H26      9.7770     8.7460    21.4250 H     1 Q101   0.1600 
 45 H24      6.7050    10.5460    23.8480 H     1 Q101   0.1630 
 46 H21      5.3060    10.8180    21.8730 H     1 Q101   0.1530 
 47 H2       3.6440    15.9350    11.3880 H     1 Q101   0.1720 
 48 H12      3.7740    11.3190    17.7670 H     1 Q101   0.0910 
 49 H1       6.2460    12.4480    16.6940 H     1 Q101   0.4670 
@<TRIPOS>BOND
  1   1   2  am  
  2   1   9  1   
  3   1  49  1   
  4   2  21  2   
  5   2  29  1   
  6   2  30  2   
  7   3  11  1   
  8   3  12  1   
  9   3  19  am  
 10   4   7  1   
 11   4   8  1   
 12   4  18  am  
 13   5  19  2   
 14   6  18  2   
 15   7  38  1   
 16   7  39  1   
 17   7  40  1   
 18   8  35  1   
 19   8  36  1   
 20   8  37  1   
 21   9  10  1   
 22   9  19  1   
 23   9  48  1   
 24  10  11  1   
 25  10  33  1   
 26  10  34  1   
 27  11  31  1   
 28  11  32  1   
 29  12  13  ar  
 30  12  14  ar  
 31  13  15  ar  
 32  13  46  1   
 33  14  16  ar  
 34  14  20  1   
 35  15  17  ar  
 36  15  45  1   
 37  16  17  ar  
 38  16  44  1   
 39  17  18  1   
 40  22  23  1   
 41  23  24  2   
 42  23  25  1   
 43  24  26  1   
 44  24  47  1   
 45  25  27  1   
 46  26  27  2   
 47  26  43  1   
 48  27  28  1   
 49  28  29  2   
 50  28  42  1   
 51  29  41  1   
@<TRIPOS>SUBSTRUCTURE
  1 Q101  19 GROUP 4 **** **** 0

# MOE 2011.10 (io_trps.svl 2011.10)

@<TRIPOS>MOLECULE
FXA101_150
49 51 1 0 0 
SMALL
USER_CHARGES


@<TRIPOS>ATOM
  1 N1       3.3430     7.4650    21.9720 N.am  1 Q101  -0.8960 
  2 S1       3.0690     8.4800    23.1980 S.o2  1 Q101   1.3220 
  3 N2       4.3880     4.3800    20.8480 N.am  1 Q101  -0.3970 
  4 N3       8.8920     1.5650    17.0320 N.am  1 Q101  -0.4840 
  5 O3       5.8240     6.1320    21.2690 O.2   1 Q101  -0.6040 
  6 O4       6.9410     0.8090    16.2830 O.2   1 Q101  -0.6060 
  7 C7       9.4830     2.7280    17.7130 C.3   1 Q101   0.0840 
  8 C8       9.8060     0.6150    16.3750 C.3   1 Q101   0.0840 
  9 C12      3.5840     6.0670    22.2440 C.3   1 Q101   0.1690 
 10 C13      2.4160     5.1550    21.8540 C.3   1 Q101  -0.1080 
 11 C14      3.0700     3.9140    21.2570 C.3   1 Q101   0.1020 
 12 C15      5.2040     3.6580    19.9210 C.ar  1 Q101   0.0330 
 13 C21      5.1070     3.8760    18.5540 C.ar  1 Q101  -0.1060 
 14 C22      6.0990     2.6960    20.3640 C.ar  1 Q101   0.1210 
 15 C24      5.8820     3.1680    17.6580 C.ar  1 Q101  -0.0920 
 16 C26      6.8920     1.9650    19.4950 C.ar  1 Q101  -0.1400 
 17 C27      6.7770     2.2180    18.1280 C.ar  1 Q101  -0.1150 
 18 C28      7.5600     1.4870    17.0880 C.2   1 Q101   0.6760 
 19 C50      4.7520     5.5620    21.4050 C.2   1 Q101   0.6950 
 20 F1       6.1900     2.4740    21.6860 F     1 Q101  -0.1400 
 21 O1       1.6510     8.4380    23.3800 O.2   1 Q101  -0.5930 
 22 CL1      9.0790     9.3670    21.5720 Cl    1 Q101  -0.0550 
 23 C1       8.0440     9.2290    22.9540 C.2   1 Q101   0.0330 
 24 C2       8.3720     9.4860    24.2430 C.2   1 Q101  -0.1460 
 25 S2       6.4150     8.7230    22.7370 S.3   1 Q101   0.0240 
 26 C3       7.2860     9.2640    25.0940 C.2   1 Q101  -0.1130 
 27 C4       6.1350     8.8390    24.4420 C.2   1 Q101  -0.0920 
 28 C5       4.8680     8.5380    25.1190 C.2   1 Q101   0.0810 
 29 C6       3.8490     7.8440    24.6160 C.2   1 Q101  -0.4200 
 30 O2       3.7320     9.6780    22.7660 O.2   1 Q101  -0.5930 
 31 H142     2.5130     3.5210    20.4010 H     1 Q101   0.0600 
 32 H141     3.1950     3.1300    22.0110 H     1 Q101   0.0600 
 33 H132     1.7700     4.9190    22.7040 H     1 Q101   0.0720 
 34 H131     1.7940     5.6430    21.0930 H     1 Q101   0.0720 
 35 H83     10.0690     1.0000    15.3930 H     1 Q101   0.0490 
 36 H82     10.7020     0.4980    16.9920 H     1 Q101   0.0490 
 37 H81      9.3090    -0.3470    16.2880 H     1 Q101   0.0490 
 38 H73      9.2710     2.6480    18.7830 H     1 Q101   0.0490 
 39 H72     10.5620     2.7660    17.5440 H     1 Q101   0.0490 
 40 H71      9.0210     3.6470    17.3380 H     1 Q101   0.0490 
 41 H6       3.4840     6.9100    25.0180 H     1 Q101   0.1940 
 42 H5       4.8280     8.8960    26.1480 H     1 Q101   0.1560 
 43 H3       7.3270     9.4240    26.1670 H     1 Q101   0.1600 
 44 H26      7.5850     1.2280    19.8780 H     1 Q101   0.1600 
 45 H24      5.7590     3.3350    16.5960 H     1 Q101   0.1630 
 46 H21      4.4010     4.6060    18.1670 H     1 Q101   0.1530 
 47 H2       9.3420     9.8260    24.5790 H     1 Q101   0.1720 
 48 H12      3.8440     5.8790    23.2930 H     1 Q101   0.0910 
 49 H1       3.8010     7.8580    21.1460 H     1 Q101   0.4670 
@<TRIPOS>BOND
  1   1   2  am  
  2   1   9  1   
  3   1  49  1   
  4   2  21  2   
  5   2  29  1   
  6   2  30  2   
  7   3  11  1   
  8   3  12  1   
  9   3  19  am  
 10   4   7  1   
 11   4   8  1   
 12   4  18  am  
 13   5  19  2   
 14   6  18  2   
 15   7  38  1   
 16   7  39  1   
 17   7  40  1   
 18   8  35  1   
 19   8  36  1   
 20   8  37  1   
 21   9  10  1   
 22   9  19  1   
 23   9  48  1   
 24  10  11  1   
 25  10  33  1   
 26  10  34  1   
 27  11  31  1   
 28  11  32  1   
 29  12  13  ar  
 30  12  14  ar  
 31  13  15  ar  
 32  13  46  1   
 33  14  16  ar  
 34  14  20  1   
 35  15  17  ar  
 36  15  45  1   
 37  16  17  ar  
 38  16  44  1   
 39  17  18  1   
 40  22  23  1   
 41  23  24  2   
 42  23  25  1   
 43  24  26  1   
 44  24  47  1   
 45  25  27  1   
 46  26  27  2   
 47  26  43  1   
 48  27  28  1   
 49  28  29  2   
 50  28  42  1   
 51  29  41  1   
@<TRIPOS>SUBSTRUCTURE
  1 Q101   5 GROUP 4 **** **** 0

# MOE 2011.10 (io_trps.svl 2011.10)

@<TRIPOS>MOLECULE
FXA101_151
49 51 1 0 0 
SMALL
USER_CHARGES


@<TRIPOS>ATOM
  1 N1       4.8010     6.2810    23.0460 N.am  1 Q101  -0.8960 
  2 S1       5.3330     7.7940    23.2380 S.o2  1 Q101   1.3220 
  3 N2       2.1250     4.2830    22.1990 N.am  1 Q101  -0.3970 
  4 N3      -2.7280     0.0400    23.1140 N.am  1 Q101  -0.4840 
  5 O3       2.1530     5.6500    24.0550 O.2   1 Q101  -0.6040 
  6 O4      -1.6060    -0.0200    25.0320 O.2   1 Q101  -0.6060 
  7 C7      -2.3440    -0.9830    22.1280 C.3   1 Q101   0.0840 
  8 C8      -4.1300     0.4900    23.1270 C.3   1 Q101   0.0840 
  9 C12      3.6740     6.0280    22.1780 C.3   1 Q101   0.1690 
 10 C13      3.9920     5.0750    21.0220 C.3   1 Q101  -0.1080 
 11 C14      2.7570     4.1910    20.8910 C.3   1 Q101   0.1020 
 12 C15      1.1460     3.3420    22.6480 C.ar  1 Q101   0.0330 
 13 C21      1.4670     2.0050    22.8400 C.ar  1 Q101  -0.1060 
 14 C22     -0.1640     3.7350    22.8760 C.ar  1 Q101   0.1210 
 15 C24      0.5200     1.0920    23.2570 C.ar  1 Q101  -0.0920 
 16 C26     -1.1430     2.8480    23.2940 C.ar  1 Q101  -0.1400 
 17 C27     -0.7810     1.5140    23.4880 C.ar  1 Q101  -0.1150 
 18 C28     -1.7440     0.4570    23.9170 C.2   1 Q101   0.6760 
 19 C50      2.5650     5.3230    22.9520 C.2   1 Q101   0.6950 
 20 F1      -0.4840     5.0250    22.6810 F     1 Q101  -0.1400 
 21 O1       4.2160     8.4920    23.7940 O.2   1 Q101  -0.5930 
 22 CL1     12.0490     7.1180    27.4040 Cl    1 Q101  -0.0550 
 23 C1      11.0110     7.6900    26.1410 C.2   1 Q101   0.0330 
 24 C2      11.3690     8.4470    25.0760 C.2   1 Q101  -0.1460 
 25 S2       9.3400     7.2880    26.1790 S.3   1 Q101   0.0240 
 26 C3      10.2680     8.7240    24.2610 C.2   1 Q101  -0.1130 
 27 C4       9.0760     8.1730    24.7150 C.2   1 Q101  -0.0920 
 28 C5       7.7860     8.3280    24.0330 C.2   1 Q101   0.0810 
 29 C6       6.6300     7.7720    24.3950 C.2   1 Q101  -0.4200 
 30 O2       5.8410     8.1160    21.9340 O.2   1 Q101  -0.5930 
 31 H142     3.0120     3.1530    20.6540 H     1 Q101   0.0600 
 32 H141     2.0660     4.5840    20.1390 H     1 Q101   0.0600 
 33 H132     4.2250     5.6080    20.0950 H     1 Q101   0.0720 
 34 H131     4.8620     4.4540    21.2710 H     1 Q101   0.0720 
 35 H83     -4.2650     1.2460    22.3570 H     1 Q101   0.0490 
 36 H82     -4.7820    -0.3680    22.9390 H     1 Q101   0.0490 
 37 H81     -4.3580     0.8980    24.1080 H     1 Q101   0.0490 
 38 H73     -2.0440    -1.8870    22.6650 H     1 Q101   0.0490 
 39 H72     -3.1770    -1.2010    21.4560 H     1 Q101   0.0490 
 40 H71     -1.4870    -0.6280    21.5460 H     1 Q101   0.0490 
 41 H6       6.4490     7.2990    25.3500 H     1 Q101   0.1940 
 42 H5       7.8200     9.0110    23.1860 H     1 Q101   0.1560 
 43 H3      10.3360     9.3030    23.3450 H     1 Q101   0.1600 
 44 H26     -2.1530     3.1930    23.4690 H     1 Q101   0.1600 
 45 H24      0.7910     0.0510    23.3640 H     1 Q101   0.1630 
 46 H21      2.4790     1.6550    22.6500 H     1 Q101   0.1530 
 47 H2      12.3740     8.7900    24.8700 H     1 Q101   0.1720 
 48 H12      3.2400     6.9470    21.7700 H     1 Q101   0.0910 
 49 H1       4.9210     5.6500    23.8420 H     1 Q101   0.4670 
@<TRIPOS>BOND
  1   1   2  am  
  2   1   9  1   
  3   1  49  1   
  4   2  21  2   
  5   2  29  1   
  6   2  30  2   
  7   3  11  1   
  8   3  12  1   
  9   3  19  am  
 10   4   7  1   
 11   4   8  1   
 12   4  18  am  
 13   5  19  2   
 14   6  18  2   
 15   7  38  1   
 16   7  39  1   
 17   7  40  1   
 18   8  35  1   
 19   8  36  1   
 20   8  37  1   
 21   9  10  1   
 22   9  19  1   
 23   9  48  1   
 24  10  11  1   
 25  10  33  1   
 26  10  34  1   
 27  11  31  1   
 28  11  32  1   
 29  12  13  ar  
 30  12  14  ar  
 31  13  15  ar  
 32  13  46  1   
 33  14  16  ar  
 34  14  20  1   
 35  15  17  ar  
 36  15  45  1   
 37  16  17  ar  
 38  16  44  1   
 39  17  18  1   
 40  22  23  1   
 41  23  24  2   
 42  23  25  1   
 43  24  26  1   
 44  24  47  1   
 45  25  27  1   
 46  26  27  2   
 47  26  43  1   
 48  27  28  1   
 49  28  29  2   
 50  28  42  1   
 51  29  41  1   
@<TRIPOS>SUBSTRUCTURE
  1 Q101  19 GROUP 4 **** **** 0

# MOE 2011.10 (io_trps.svl 2011.10)

@<TRIPOS>MOLECULE
FXA101_152
49 51 1 0 0 
SMALL
USER_CHARGES


@<TRIPOS>ATOM
  1 N1       6.1220     6.5200    21.4230 N.am  1 Q101  -0.8960 
  2 S1       7.0130     7.6760    22.1130 S.o2  1 Q101   1.3220 
  3 N2       6.1520     4.7640    18.4590 N.am  1 Q101  -0.3970 
  4 N3       3.2140     4.5130    12.7100 N.am  1 Q101  -0.4840 
  5 O3       6.6780     7.0020    18.6150 O.2   1 Q101  -0.6040 
  6 O4       5.3370     4.7560    12.1010 O.2   1 Q101  -0.6060 
  7 C7       2.6740     3.1490    12.8270 C.3   1 Q101   0.0840 
  8 C8       2.2900     5.5870    12.3090 C.3   1 Q101   0.0840 
  9 C12      6.7590     5.5410    20.5730 C.3   1 Q101   0.1690 
 10 C13      6.1770     4.1310    20.7170 C.3   1 Q101  -0.1080 
 11 C14      6.1430     3.5750    19.2980 C.3   1 Q101   0.1020 
 12 C15      5.7660     4.7350    17.0820 C.ar  1 Q101   0.0330 
 13 C21      4.6640     5.4450    16.6270 C.ar  1 Q101  -0.1060 
 14 C22      6.4720     3.9700    16.1640 C.ar  1 Q101   0.1210 
 15 C24      4.2820     5.4050    15.3010 C.ar  1 Q101  -0.0920 
 16 C26      6.1170     3.9040    14.8260 C.ar  1 Q101  -0.1400 
 17 C27      5.0100     4.6400    14.4020 C.ar  1 Q101  -0.1150 
 18 C28      4.5140     4.6380    12.9940 C.2   1 Q101   0.6760 
 19 C50      6.5340     5.8930    19.1070 C.2   1 Q101   0.6950 
 20 F1       7.5340     3.2730    16.6000 F     1 Q101  -0.1400 
 21 O1       6.9100     8.7840    21.2140 O.2   1 Q101  -0.5930 
 22 CL1     12.2010     7.7780    26.0850 Cl    1 Q101  -0.0550 
 23 C1      10.7620     8.3840    25.3350 C.2   1 Q101   0.0330 
 24 C2      10.6850     9.3510    24.3900 C.2   1 Q101  -0.1460 
 25 S2       9.2380     7.7300    25.7890 S.3   1 Q101   0.0240 
 26 C3       9.3590     9.5870    24.0160 C.2   1 Q101  -0.1130 
 27 C4       8.4340     8.7930    24.6830 C.2   1 Q101  -0.0920 
 28 C5       6.9850     8.8580    24.4660 C.2   1 Q101   0.0810 
 29 C6       6.2760     8.0990    23.6300 C.2   1 Q101  -0.4200 
 30 O2       8.2660     7.0130    22.3400 O.2   1 Q101  -0.5930 
 31 H142     5.2500     2.9710    19.1090 H     1 Q101   0.0600 
 32 H141     7.0410     2.9860    19.0820 H     1 Q101   0.0600 
 33 H132     6.7620     3.5060    21.3980 H     1 Q101   0.0720 
 34 H131     5.1560     4.1830    21.1140 H     1 Q101   0.0720 
 35 H83      2.1910     5.5810    11.2260 H     1 Q101   0.0490 
 36 H82      1.3180     5.4160    12.7810 H     1 Q101   0.0490 
 37 H81      2.6870     6.5380    12.6520 H     1 Q101   0.0490 
 38 H73      2.7440     2.8370    13.8730 H     1 Q101   0.0490 
 39 H72      1.6340     3.1170    12.4930 H     1 Q101   0.0490 
 40 H71      3.2740     2.4630    12.2210 H     1 Q101   0.0490 
 41 H6       5.2860     7.7200    23.8350 H     1 Q101   0.1940 
 42 H5       6.4790     9.5770    25.1100 H     1 Q101   0.1560 
 43 H3       9.0730    10.3120    23.2600 H     1 Q101   0.1600 
 44 H26      6.6960     3.3030    14.1380 H     1 Q101   0.1600 
 45 H24      3.3970     5.9400    14.9830 H     1 Q101   0.1630 
 46 H21      4.0740     6.0380    17.3210 H     1 Q101   0.1530 
 47 H2      11.5330     9.8730    23.9670 H     1 Q101   0.1720 
 48 H12      7.8440     5.4930    20.7240 H     1 Q101   0.0910 
 49 H1       5.1520     6.7610    21.2010 H     1 Q101   0.4670 
@<TRIPOS>BOND
  1   1   2  am  
  2   1   9  1   
  3   1  49  1   
  4   2  21  2   
  5   2  29  1   
  6   2  30  2   
  7   3  11  1   
  8   3  12  1   
  9   3  19  am  
 10   4   7  1   
 11   4   8  1   
 12   4  18  am  
 13   5  19  2   
 14   6  18  2   
 15   7  38  1   
 16   7  39  1   
 17   7  40  1   
 18   8  35  1   
 19   8  36  1   
 20   8  37  1   
 21   9  10  1   
 22   9  19  1   
 23   9  48  1   
 24  10  11  1   
 25  10  33  1   
 26  10  34  1   
 27  11  31  1   
 28  11  32  1   
 29  12  13  ar  
 30  12  14  ar  
 31  13  15  ar  
 32  13  46  1   
 33  14  16  ar  
 34  14  20  1   
 35  15  17  ar  
 36  15  45  1   
 37  16  17  ar  
 38  16  44  1   
 39  17  18  1   
 40  22  23  1   
 41  23  24  2   
 42  23  25  1   
 43  24  26  1   
 44  24  47  1   
 45  25  27  1   
 46  26  27  2   
 47  26  43  1   
 48  27  28  1   
 49  28  29  2   
 50  28  42  1   
 51  29  41  1   
@<TRIPOS>SUBSTRUCTURE
  1 Q101  19 GROUP 4 **** **** 0

# MOE 2011.10 (io_trps.svl 2011.10)

@<TRIPOS>MOLECULE
FXA101_153
49 51 1 0 0 
SMALL
USER_CHARGES


@<TRIPOS>ATOM
  1 N1       5.5880     7.5060    23.9020 N.am  1 Q101  -0.8960 
  2 S1       6.4660     8.8170    24.2490 S.o2  1 Q101   1.3220 
  3 N2       2.2390     7.2980    23.1230 N.am  1 Q101  -0.3970 
  4 N3      -3.7340     6.6220    25.5470 N.am  1 Q101  -0.4840 
  5 O3       3.1620     9.0500    24.3020 O.2   1 Q101  -0.6040 
  6 O4      -3.6630     8.7910    25.0680 O.2   1 Q101  -0.6060 
  7 C7      -4.7620     6.8950    26.5630 C.3   1 Q101   0.0840 
  8 C8      -3.4960     5.2190    25.1690 C.3   1 Q101   0.0840 
  9 C12      4.5430     7.5920    22.9080 C.3   1 Q101   0.1690 
 10 C13      4.1620     6.2380    22.3010 C.3   1 Q101  -0.1080 
 11 C14      2.6450     6.2840    22.1600 C.3   1 Q101   0.1020 
 12 C15      0.8920     7.4180    23.5900 C.ar  1 Q101   0.0330 
 13 C21      0.5970     7.4170    24.9460 C.ar  1 Q101  -0.1060 
 14 C22     -0.1640     7.5110    22.6940 C.ar  1 Q101   0.1210 
 15 C24     -0.7040     7.5160    25.3970 C.ar  1 Q101  -0.0920 
 16 C26     -1.4820     7.6110    23.1100 C.ar  1 Q101  -0.1400 
 17 C27     -1.7400     7.6180    24.4810 C.ar  1 Q101  -0.1150 
 18 C28     -3.1150     7.7000    25.0570 C.2   1 Q101   0.6760 
 19 C50      3.2520     8.0940    23.5460 C.2   1 Q101   0.6950 
 20 F1       0.1150     7.5030    21.3800 F     1 Q101  -0.1400 
 21 O1       5.5640     9.6660    24.9650 O.2   1 Q101  -0.5930 
 22 CL1     14.2130     7.4640    26.5350 Cl    1 Q101  -0.0550 
 23 C1      12.4950     7.6060    26.3710 C.2   1 Q101   0.0330 
 24 C2      11.5620     7.3010    27.3040 C.2   1 Q101  -0.1460 
 25 S2      11.8380     8.1930    24.8940 S.3   1 Q101   0.0240 
 26 C3      10.2710     7.5370    26.8240 C.2   1 Q101  -0.1130 
 27 C4      10.2330     8.0230    25.5220 C.2   1 Q101  -0.0920 
 28 C5       8.9970     8.3430    24.7990 C.2   1 Q101   0.0810 
 29 C6       7.7630     8.3390    25.3030 C.2   1 Q101  -0.4200 
 30 O2       6.9860     9.1940    22.9650 O.2   1 Q101  -0.5930 
 31 H142     2.1760     5.3220    22.3870 H     1 Q101   0.0600 
 32 H141     2.3490     6.6140    21.1580 H     1 Q101   0.0600 
 33 H132     4.6650     6.0530    21.3470 H     1 Q101   0.0720 
 34 H131     4.4420     5.4250    22.9830 H     1 Q101   0.0720 
 35 H83     -2.8310     4.7640    25.8990 H     1 Q101   0.0490 
 36 H82     -4.4530     4.6900    25.1420 H     1 Q101   0.0490 
 37 H81     -3.0510     5.1930    24.1780 H     1 Q101   0.0490 
 38 H73     -5.5680     7.4690    26.0970 H     1 Q101   0.0490 
 39 H72     -5.1540     5.9620    26.9760 H     1 Q101   0.0490 
 40 H71     -4.3310     7.4990    27.3690 H     1 Q101   0.0490 
 41 H6       7.5140     8.0490    26.3130 H     1 Q101   0.1940 
 42 H5       9.1630     8.6550    23.7680 H     1 Q101   0.1560 
 43 H3       9.3750     7.3750    27.4150 H     1 Q101   0.1600 
 44 H26     -2.2780     7.6900    22.3830 H     1 Q101   0.1600 
 45 H24     -0.9050     7.4760    26.4590 H     1 Q101   0.1630 
 46 H21      1.3960     7.3230    25.6770 H     1 Q101   0.1530 
 47 H2      11.7780     6.9310    28.2970 H     1 Q101   0.1720 
 48 H12      4.7870     8.2870    22.0970 H     1 Q101   0.0910 
 49 H1       5.4470     6.8360    24.6620 H     1 Q101   0.4670 
@<TRIPOS>BOND
  1   1   2  am  
  2   1   9  1   
  3   1  49  1   
  4   2  21  2   
  5   2  29  1   
  6   2  30  2   
  7   3  11  1   
  8   3  12  1   
  9   3  19  am  
 10   4   7  1   
 11   4   8  1   
 12   4  18  am  
 13   5  19  2   
 14   6  18  2   
 15   7  38  1   
 16   7  39  1   
 17   7  40  1   
 18   8  35  1   
 19   8  36  1   
 20   8  37  1   
 21   9  10  1   
 22   9  19  1   
 23   9  48  1   
 24  10  11  1   
 25  10  33  1   
 26  10  34  1   
 27  11  31  1   
 28  11  32  1   
 29  12  13  ar  
 30  12  14  ar  
 31  13  15  ar  
 32  13  46  1   
 33  14  16  ar  
 34  14  20  1   
 35  15  17  ar  
 36  15  45  1   
 37  16  17  ar  
 38  16  44  1   
 39  17  18  1   
 40  22  23  1   
 41  23  24  2   
 42  23  25  1   
 43  24  26  1   
 44  24  47  1   
 45  25  27  1   
 46  26  27  2   
 47  26  43  1   
 48  27  28  1   
 49  28  29  2   
 50  28  42  1   
 51  29  41  1   
@<TRIPOS>SUBSTRUCTURE
  1 Q101  19 GROUP 4 **** **** 0

# MOE 2011.10 (io_trps.svl 2011.10)

@<TRIPOS>MOLECULE
FXA101_154
49 51 1 0 0 
SMALL
USER_CHARGES


@<TRIPOS>ATOM
  1 N1       2.9230     9.5940    22.3240 N.am  1 Q101  -0.8960 
  2 S1       4.4820     9.2420    22.5560 S.o2  1 Q101   1.3220 
  3 N2       0.6030     9.5460    19.7770 N.am  1 Q101  -0.3970 
  4 N3      -3.0680    12.6710    15.3790 N.am  1 Q101  -0.4840 
  5 O3       2.7600    10.3140    19.5160 O.2   1 Q101  -0.6040 
  6 O4      -1.0430    12.6080    14.4670 O.2   1 Q101  -0.6060 
  7 C7      -3.9190    11.9390    16.3310 C.3   1 Q101   0.0840 
  8 C8      -3.7120    13.6660    14.5050 C.3   1 Q101   0.0840 
  9 C12      2.1570     8.8330    21.3640 C.3   1 Q101   0.1690 
 10 C13      0.7520     8.4670    21.8540 C.3   1 Q101  -0.1080 
 11 C14     -0.1450     8.6370    20.6330 C.3   1 Q101   0.1020 
 12 C15     -0.0060    10.2640    18.7000 C.ar  1 Q101   0.0330 
 13 C21     -0.4220     9.6160    17.5460 C.ar  1 Q101  -0.1060 
 14 C22     -0.1750    11.6390    18.7700 C.ar  1 Q101   0.1210 
 15 C24     -0.9950    10.3090    16.5000 C.ar  1 Q101  -0.0920 
 16 C26     -0.7450    12.3690    17.7400 C.ar  1 Q101  -0.1400 
 17 C27     -1.1610    11.6830    16.5990 C.ar  1 Q101  -0.1150 
 18 C28     -1.7710    12.3540    15.4130 C.2   1 Q101   0.6760 
 19 C50      1.9130     9.6630    20.1100 C.2   1 Q101   0.6950 
 20 F1       0.2340    12.2740    19.8810 F     1 Q101  -0.1400 
 21 O1       4.8540    10.0240    23.6950 O.2   1 Q101  -0.5930 
 22 CL1     10.4530     9.5530    25.2170 Cl    1 Q101  -0.0550 
 23 C1       9.0620     8.9710    24.3640 C.2   1 Q101   0.0330 
 24 C2       8.7630     9.1810    23.0600 C.2   1 Q101  -0.1460 
 25 S2       7.9020     8.0170    25.2000 S.3   1 Q101   0.0240 
 26 C3       7.5580     8.5640    22.7130 C.2   1 Q101  -0.1130 
 27 C4       6.9480     7.8860    23.7610 C.2   1 Q101  -0.0920 
 28 C5       5.6760     7.1640    23.6450 C.2   1 Q101   0.0810 
 29 C6       4.6060     7.5550    22.9540 C.2   1 Q101  -0.4200 
 30 O2       5.0550     9.4890    21.2630 O.2   1 Q101  -0.5930 
 31 H142    -1.1220     9.0580    20.8890 H     1 Q101   0.0600 
 32 H141    -0.2780     7.6870    20.1040 H     1 Q101   0.0600 
 33 H132     0.7050     7.4560    22.2700 H     1 Q101   0.0720 
 34 H131     0.4330     9.1610    22.6420 H     1 Q101   0.0720 
 35 H83     -4.1510    13.1540    13.6510 H     1 Q101   0.0490 
 36 H82     -4.4850    14.1920    15.0720 H     1 Q101   0.0490 
 37 H81     -2.9640    14.3830    14.1780 H     1 Q101   0.0490 
 38 H73     -3.6120    12.2050    17.3460 H     1 Q101   0.0490 
 39 H72     -4.9720    12.1890    16.1770 H     1 Q101   0.0490 
 40 H71     -3.7760    10.8620    16.1990 H     1 Q101   0.0490 
 41 H6       3.8210     6.8950    22.6140 H     1 Q101   0.1940 
 42 H5       5.6760     6.1980    24.1500 H     1 Q101   0.1560 
 43 H3       7.1400     8.5940    21.7110 H     1 Q101   0.1600 
 44 H26     -0.8670    13.4400    17.8330 H     1 Q101   0.1600 
 45 H24     -1.2760     9.7810    15.5980 H     1 Q101   0.1630 
 46 H21     -0.2860     8.5410    17.4460 H     1 Q101   0.1530 
 47 H2       9.3740     9.7440    22.3680 H     1 Q101   0.1720 
 48 H12      2.6690     7.9180    21.0440 H     1 Q101   0.0910 
 49 H1       2.6490    10.5700    22.4610 H     1 Q101   0.4670 
@<TRIPOS>BOND
  1   1   2  am  
  2   1   9  1   
  3   1  49  1   
  4   2  21  2   
  5   2  29  1   
  6   2  30  2   
  7   3  11  1   
  8   3  12  1   
  9   3  19  am  
 10   4   7  1   
 11   4   8  1   
 12   4  18  am  
 13   5  19  2   
 14   6  18  2   
 15   7  38  1   
 16   7  39  1   
 17   7  40  1   
 18   8  35  1   
 19   8  36  1   
 20   8  37  1   
 21   9  10  1   
 22   9  19  1   
 23   9  48  1   
 24  10  11  1   
 25  10  33  1   
 26  10  34  1   
 27  11  31  1   
 28  11  32  1   
 29  12  13  ar  
 30  12  14  ar  
 31  13  15  ar  
 32  13  46  1   
 33  14  16  ar  
 34  14  20  1   
 35  15  17  ar  
 36  15  45  1   
 37  16  17  ar  
 38  16  44  1   
 39  17  18  1   
 40  22  23  1   
 41  23  24  2   
 42  23  25  1   
 43  24  26  1   
 44  24  47  1   
 45  25  27  1   
 46  26  27  2   
 47  26  43  1   
 48  27  28  1   
 49  28  29  2   
 50  28  42  1   
 51  29  41  1   
@<TRIPOS>SUBSTRUCTURE
  1 Q101  19 GROUP 4 **** **** 0

# MOE 2011.10 (io_trps.svl 2011.10)

@<TRIPOS>MOLECULE
FXA101_155
49 51 1 0 0 
SMALL
USER_CHARGES


@<TRIPOS>ATOM
  1 N1       7.1070     2.5910    15.9590 N.am  1 Q101  -0.8960 
  2 S1       6.4420     1.4670    15.0100 S.o2  1 Q101   1.3220 
  3 N2       7.4260     3.9840    19.0940 N.am  1 Q101  -0.3970 
  4 N3       7.3500     8.7320    23.5830 N.am  1 Q101  -0.4840 
  5 O3       5.6350     4.3880    17.7010 O.2   1 Q101  -0.6040 
  6 O4       7.0490     9.7750    21.6430 O.2   1 Q101  -0.6060 
  7 C7       8.7420     8.6660    24.0540 C.3   1 Q101   0.0840 
  8 C8       6.2830     8.8020    24.5950 C.3   1 Q101   0.0840 
  9 C12      7.0640     2.4280    17.3940 C.3   1 Q101   0.1690 
 10 C13      8.4350     2.1580    18.0220 C.3   1 Q101  -0.1080 
 11 C14      8.4360     2.9600    19.3190 C.3   1 Q101   0.1020 
 12 C15      7.3420     5.1690    19.8910 C.ar  1 Q101   0.0330 
 13 C21      7.9620     6.3470    19.4970 C.ar  1 Q101  -0.1060 
 14 C22      6.6600     5.1650    21.0980 C.ar  1 Q101   0.1210 
 15 C24      7.8960     7.4860    20.2730 C.ar  1 Q101  -0.0920 
 16 C26      6.5730     6.2890    21.9040 C.ar  1 Q101  -0.1400 
 17 C27      7.1990     7.4590    21.4710 C.ar  1 Q101  -0.1150 
 18 C28      7.1970     8.7290    22.2550 C.2   1 Q101   0.6760 
 19 C50      6.5940     3.7190    18.0550 C.2   1 Q101   0.6950 
 20 F1       6.0660     4.0260    21.4900 F     1 Q101  -0.1400 
 21 O1       6.3780     2.0860    13.7220 O.2   1 Q101  -0.5930 
 22 CL1      1.9570    -2.2940    12.5640 Cl    1 Q101  -0.0550 
 23 C1       3.5860    -1.7570    12.8020 C.2   1 Q101   0.0330 
 24 C2       4.3810    -1.1450    11.8920 C.2   1 Q101  -0.1460 
 25 S2       4.3320    -1.9900    14.3340 S.3   1 Q101   0.0240 
 26 C3       5.6370    -0.8550    12.4320 C.2   1 Q101  -0.1130 
 27 C4       5.7880    -1.2510    13.7550 C.2   1 Q101  -0.0920 
 28 C5       7.0150    -1.0600    14.5370 C.2   1 Q101   0.0810 
 29 C6       7.5210     0.1060    14.9390 C.2   1 Q101  -0.4200 
 30 O2       5.2500     1.1140    15.7290 O.2   1 Q101  -0.5930 
 31 H142     9.4100     3.4140    19.5260 H     1 Q101   0.0600 
 32 H141     8.1260     2.3420    20.1680 H     1 Q101   0.0600 
 33 H132     8.6140     1.0920    18.1900 H     1 Q101   0.0720 
 34 H131     9.2320     2.5260    17.3630 H     1 Q101   0.0720 
 35 H83      6.0670     7.7980    24.9510 H     1 Q101   0.0490 
 36 H82      6.6170     9.4360    25.4210 H     1 Q101   0.0490 
 37 H81      5.4000     9.2460    24.1440 H     1 Q101   0.0490 
 38 H73      9.2620     9.5710    23.7300 H     1 Q101   0.0490 
 39 H72      8.7760     8.5810    25.1440 H     1 Q101   0.0490 
 40 H71      9.2420     7.8010    23.6050 H     1 Q101   0.0490 
 41 H6       8.5490     0.2590    15.2340 H     1 Q101   0.1940 
 42 H5       7.4920    -1.9930    14.8350 H     1 Q101   0.1560 
 43 H3       6.4230    -0.3510    11.8770 H     1 Q101   0.1600 
 44 H26      6.0250     6.2510    22.8360 H     1 Q101   0.1600 
 45 H24      8.4200     8.3790    19.9570 H     1 Q101   0.1630 
 46 H21      8.5250     6.3820    18.5680 H     1 Q101   0.1530 
 47 H2       4.0880    -0.9000    10.8800 H     1 Q101   0.1720 
 48 H12      6.3690     1.6410    17.7090 H     1 Q101   0.0910 
 49 H1       7.1020     3.5510    15.6040 H     1 Q101   0.4670 
@<TRIPOS>BOND
  1   1   2  am  
  2   1   9  1   
  3   1  49  1   
  4   2  21  2   
  5   2  29  1   
  6   2  30  2   
  7   3  11  1   
  8   3  12  1   
  9   3  19  am  
 10   4   7  1   
 11   4   8  1   
 12   4  18  am  
 13   5  19  2   
 14   6  18  2   
 15   7  38  1   
 16   7  39  1   
 17   7  40  1   
 18   8  35  1   
 19   8  36  1   
 20   8  37  1   
 21   9  10  1   
 22   9  19  1   
 23   9  48  1   
 24  10  11  1   
 25  10  33  1   
 26  10  34  1   
 27  11  31  1   
 28  11  32  1   
 29  12  13  ar  
 30  12  14  ar  
 31  13  15  ar  
 32  13  46  1   
 33  14  16  ar  
 34  14  20  1   
 35  15  17  ar  
 36  15  45  1   
 37  16  17  ar  
 38  16  44  1   
 39  17  18  1   
 40  22  23  1   
 41  23  24  2   
 42  23  25  1   
 43  24  26  1   
 44  24  47  1   
 45  25  27  1   
 46  26  27  2   
 47  26  43  1   
 48  27  28  1   
 49  28  29  2   
 50  28  42  1   
 51  29  41  1   
@<TRIPOS>SUBSTRUCTURE
  1 Q101  19 GROUP 4 **** **** 0

# MOE 2011.10 (io_trps.svl 2011.10)

@<TRIPOS>MOLECULE
FXA101_156
49 51 1 0 0 
SMALL
USER_CHARGES


@<TRIPOS>ATOM
  1 N1       4.5770     9.0780    21.3690 N.am  1 Q101  -0.8960 
  2 S1       4.5540     8.6410    22.9230 S.o2  1 Q101   1.3220 
  3 N2       3.0260     8.9290    18.2960 N.am  1 Q101  -0.3970 
  4 N3       1.8370    11.5570    12.4500 N.am  1 Q101  -0.4840 
  5 O3       5.3150     8.9180    18.5660 O.2   1 Q101  -0.6040 
  6 O4       3.7550    10.4670    12.1750 O.2   1 Q101  -0.6060 
  7 C7       2.2300    12.7410    11.6700 C.3   1 Q101   0.0840 
  8 C8       0.3990    11.3000    12.6330 C.3   1 Q101   0.0840 
  9 C12      3.8190     8.3170    20.4030 C.3   1 Q101   0.1690 
 10 C13      2.3060     8.5440    20.4950 C.3   1 Q101  -0.1080 
 11 C14      1.8280     8.5840    19.0480 C.3   1 Q101   0.1020 
 12 C15      2.9750     9.4270    16.9560 C.ar  1 Q101   0.0330 
 13 C21      2.3730     8.6990    15.9400 C.ar  1 Q101  -0.1060 
 14 C22      3.5550    10.6440    16.6300 C.ar  1 Q101   0.1210 
 15 C24      2.3380     9.1700    14.6430 C.ar  1 Q101  -0.0920 
 16 C26      3.5400    11.1490    15.3390 C.ar  1 Q101  -0.1400 
 17 C27      2.9160    10.3960    14.3450 C.ar  1 Q101  -0.1150 
 18 C28      2.8490    10.8180    12.9140 C.2   1 Q101   0.6760 
 19 C50      4.1800     8.7560    18.9890 C.2   1 Q101   0.6950 
 20 F1       4.1480    11.3480    17.6070 F     1 Q101  -0.1400 
 21 O1       3.5860     7.5890    22.9790 O.2   1 Q101  -0.5930 
 22 CL1     11.2000     7.5700    27.0730 Cl    1 Q101  -0.0550 
 23 C1      10.2360     8.0630    25.7220 C.2   1 Q101   0.0330 
 24 C2      10.6850     8.4970    24.5200 C.2   1 Q101  -0.1460 
 25 S2       8.5220     8.0160    25.8490 S.3   1 Q101   0.0240 
 26 C3       9.6230     8.8130    23.6680 C.2   1 Q101  -0.1130 
 27 C4       8.3690     8.6140    24.2320 C.2   1 Q101  -0.0920 
 28 C5       7.1030     8.8770    23.5370 C.2   1 Q101   0.0810 
 29 C6       6.1180     8.0030    23.3330 C.2   1 Q101  -0.4200 
 30 O2       4.3370     9.8900    23.5980 O.2   1 Q101  -0.5930 
 31 H142     1.0420     9.3290    18.8900 H     1 Q101   0.0600 
 32 H141     1.4780     7.6000    18.7180 H     1 Q101   0.0600 
 33 H132     1.8030     7.7690    21.0800 H     1 Q101   0.0720 
 34 H131     2.0970     9.5070    20.9770 H     1 Q101   0.0720 
 35 H83      0.0330    11.9080    13.4570 H     1 Q101   0.0490 
 36 H82     -0.1290    11.5520    11.7090 H     1 Q101   0.0490 
 37 H81      0.2560    10.2430    12.8440 H     1 Q101   0.0490 
 38 H73      2.7450    12.4060    10.7660 H     1 Q101   0.0490 
 39 H72      1.3520    13.3370    11.4060 H     1 Q101   0.0490 
 40 H71      2.9240    13.3530    12.2550 H     1 Q101   0.0490 
 41 H6       6.2280     6.9300    23.3920 H     1 Q101   0.1940 
 42 H5       6.9860     9.9130    23.2210 H     1 Q101   0.1560 
 43 H3       9.7600     9.1650    22.6500 H     1 Q101   0.1600 
 44 H26      3.9950    12.1060    15.1240 H     1 Q101   0.1600 
 45 H24      1.8930     8.5640    13.8660 H     1 Q101   0.1630 
 46 H21      1.9280     7.7300    16.1530 H     1 Q101   0.1530 
 47 H2      11.7270     8.5850    24.2430 H     1 Q101   0.1720 
 48 H12      4.0190     7.2410    20.4620 H     1 Q101   0.0910 
 49 H1       5.4340     9.5260    21.0330 H     1 Q101   0.4670 
@<TRIPOS>BOND
  1   1   2  am  
  2   1   9  1   
  3   1  49  1   
  4   2  21  2   
  5   2  29  1   
  6   2  30  2   
  7   3  11  1   
  8   3  12  1   
  9   3  19  am  
 10   4   7  1   
 11   4   8  1   
 12   4  18  am  
 13   5  19  2   
 14   6  18  2   
 15   7  38  1   
 16   7  39  1   
 17   7  40  1   
 18   8  35  1   
 19   8  36  1   
 20   8  37  1   
 21   9  10  1   
 22   9  19  1   
 23   9  48  1   
 24  10  11  1   
 25  10  33  1   
 26  10  34  1   
 27  11  31  1   
 28  11  32  1   
 29  12  13  ar  
 30  12  14  ar  
 31  13  15  ar  
 32  13  46  1   
 33  14  16  ar  
 34  14  20  1   
 35  15  17  ar  
 36  15  45  1   
 37  16  17  ar  
 38  16  44  1   
 39  17  18  1   
 40  22  23  1   
 41  23  24  2   
 42  23  25  1   
 43  24  26  1   
 44  24  47  1   
 45  25  27  1   
 46  26  27  2   
 47  26  43  1   
 48  27  28  1   
 49  28  29  2   
 50  28  42  1   
 51  29  41  1   
@<TRIPOS>SUBSTRUCTURE
  1 Q101  19 GROUP 4 **** **** 0

# MOE 2011.10 (io_trps.svl 2011.10)

@<TRIPOS>MOLECULE
FXA101_157
49 51 1 0 0 
SMALL
USER_CHARGES


@<TRIPOS>ATOM
  1 N1       4.7120    13.0910    18.6260 N.am  1 Q101  -0.8960 
  2 S1       5.4150    11.7450    18.0760 S.o2  1 Q101   1.3220 
  3 N2       2.8020    15.8200    17.7500 N.am  1 Q101  -0.3970 
  4 N3       1.8860    22.2740    17.2640 N.am  1 Q101  -0.4840 
  5 O3       4.8580    15.3580    16.8190 O.2   1 Q101  -0.6040 
  6 O4       3.4760    21.8070    15.7820 O.2   1 Q101  -0.6060 
  7 C7       0.6210    22.5300    16.5580 C.3   1 Q101   0.0840 
  8 C8       2.1090    22.9610    18.5470 C.3   1 Q101   0.0840 
  9 C12      3.5560    13.6220    17.9420 C.3   1 Q101   0.1690 
 10 C13      2.3350    13.8030    18.8510 C.3   1 Q101  -0.1080 
 11 C14      1.7070    15.1190    18.4050 C.3   1 Q101   0.1020 
 12 C15      2.7710    17.2290    17.5000 C.ar  1 Q101   0.0330 
 13 C21      2.3050    17.7370    16.2960 C.ar  1 Q101  -0.1060 
 14 C22      3.2350    18.1280    18.4490 C.ar  1 Q101   0.1210 
 15 C24      2.2900    19.0940    16.0470 C.ar  1 Q101  -0.0920 
 16 C26      3.2360    19.4960    18.2350 C.ar  1 Q101  -0.1400 
 17 C27      2.7500    19.9720    17.0170 C.ar  1 Q101  -0.1150 
 18 C28      2.7160    21.4210    16.6560 C.2   1 Q101   0.6760 
 19 C50      3.8500    15.0240    17.4230 C.2   1 Q101   0.6950 
 20 F1       3.6960    17.6410    19.6130 F     1 Q101  -0.1400 
 21 O1       6.1820    12.1840    16.9510 O.2   1 Q101  -0.5930 
 22 CL1      7.5410     8.7690    25.3960 Cl    1 Q101  -0.0550 
 23 C1       7.4460     9.3510    23.7680 C.2   1 Q101   0.0330 
 24 C2       8.4840     9.6230    22.9400 C.2   1 Q101  -0.1460 
 25 S2       5.9020     9.6300    23.0630 S.3   1 Q101   0.0240 
 26 C3       8.0330    10.0780    21.6980 C.2   1 Q101  -0.1130 
 27 C4       6.6500    10.1490    21.5900 C.2   1 Q101  -0.0920 
 28 C5       5.9400    10.6000    20.3870 C.2   1 Q101   0.0810 
 29 C6       6.4900    11.1500    19.3050 C.2   1 Q101  -0.4200 
 30 O2       4.3020    10.8520    17.9170 O.2   1 Q101  -0.5930 
 31 H142     1.3200    15.7010    19.2460 H     1 Q101   0.0600 
 32 H141     0.9110    14.9500    17.6720 H     1 Q101   0.0600 
 33 H132     1.6380    12.9630    18.7850 H     1 Q101   0.0720 
 34 H131     2.6520    13.8850    19.8980 H     1 Q101   0.0720 
 35 H83      2.4740    23.9670    18.3510 H     1 Q101   0.0490 
 36 H82      1.1670    22.9980    19.1000 H     1 Q101   0.0490 
 37 H81      2.8360    22.3970    19.1250 H     1 Q101   0.0490 
 38 H73      0.0520    21.5970    16.5170 H     1 Q101   0.0490 
 39 H72      0.0430    23.3020    17.0710 H     1 Q101   0.0490 
 40 H71      0.8300    22.8510    15.5320 H     1 Q101   0.0490 
 41 H6       7.5520    11.2630    19.1470 H     1 Q101   0.1940 
 42 H5       4.8700    10.3970    20.4110 H     1 Q101   0.1560 
 43 H3       8.7000    10.3380    20.8810 H     1 Q101   0.1600 
 44 H26      3.5990    20.1680    19.0020 H     1 Q101   0.1600 
 45 H24      1.9540    19.4580    15.0860 H     1 Q101   0.1630 
 46 H21      1.9540    17.0620    15.5190 H     1 Q101   0.1530 
 47 H2       9.5270     9.4990    23.1960 H     1 Q101   0.1720 
 48 H12      3.2630    13.0180    17.0750 H     1 Q101   0.0910 
 49 H1       5.3220    13.7670    19.0930 H     1 Q101   0.4670 
@<TRIPOS>BOND
  1   1   2  am  
  2   1   9  1   
  3   1  49  1   
  4   2  21  2   
  5   2  29  1   
  6   2  30  2   
  7   3  11  1   
  8   3  12  1   
  9   3  19  am  
 10   4   7  1   
 11   4   8  1   
 12   4  18  am  
 13   5  19  2   
 14   6  18  2   
 15   7  38  1   
 16   7  39  1   
 17   7  40  1   
 18   8  35  1   
 19   8  36  1   
 20   8  37  1   
 21   9  10  1   
 22   9  19  1   
 23   9  48  1   
 24  10  11  1   
 25  10  33  1   
 26  10  34  1   
 27  11  31  1   
 28  11  32  1   
 29  12  13  ar  
 30  12  14  ar  
 31  13  15  ar  
 32  13  46  1   
 33  14  16  ar  
 34  14  20  1   
 35  15  17  ar  
 36  15  45  1   
 37  16  17  ar  
 38  16  44  1   
 39  17  18  1   
 40  22  23  1   
 41  23  24  2   
 42  23  25  1   
 43  24  26  1   
 44  24  47  1   
 45  25  27  1   
 46  26  27  2   
 47  26  43  1   
 48  27  28  1   
 49  28  29  2   
 50  28  42  1   
 51  29  41  1   
@<TRIPOS>SUBSTRUCTURE
  1 Q101  19 GROUP 4 **** **** 0

# MOE 2011.10 (io_trps.svl 2011.10)

@<TRIPOS>MOLECULE
FXA101_158
49 51 1 0 0 
SMALL
USER_CHARGES


@<TRIPOS>ATOM
  1 N1       6.0630     8.4390    22.9960 N.am  1 Q101  -0.8960 
  2 S1       6.7480     9.6310    23.8440 S.o2  1 Q101   1.3220 
  3 N2       3.4310     7.3820    21.0410 N.am  1 Q101  -0.3970 
  4 N3      -1.7700     3.4280    21.1910 N.am  1 Q101  -0.4840 
  5 O3       3.2860     7.6600    23.3240 O.2   1 Q101  -0.6040 
  6 O4      -0.6580     2.8410    19.3580 O.2   1 Q101  -0.6060 
  7 C7      -1.7020     2.2320    22.0450 C.3   1 Q101   0.0840 
  8 C8      -2.9160     4.3350    21.3660 C.3   1 Q101   0.0840 
  9 C12      5.0430     8.7520    22.0230 C.3   1 Q101   0.1690 
 10 C13      5.4630     8.4580    20.5790 C.3   1 Q101  -0.1080 
 11 C14      4.2170     7.8760    19.9200 C.3   1 Q101   0.1020 
 12 C15      2.3650     6.4430    20.8770 C.ar  1 Q101   0.0330 
 13 C21      2.5730     5.0800    21.0370 C.ar  1 Q101  -0.1060 
 14 C22      1.0930     6.8690    20.5230 C.ar  1 Q101   0.1210 
 15 C24      1.5490     4.1720    20.8620 C.ar  1 Q101  -0.0920 
 16 C26      0.0400     5.9860    20.3380 C.ar  1 Q101  -0.1400 
 17 C27      0.2840     4.6240    20.5190 C.ar  1 Q101  -0.1150 
 18 C28     -0.7580     3.5720    20.3300 C.2   1 Q101   0.6760 
 19 C50      3.8180     7.8740    22.2450 C.2   1 Q101   0.6950 
 20 F1       0.8870     8.1850    20.3560 F     1 Q101  -0.1400 
 21 O1       6.0190     9.6530    25.0740 O.2   1 Q101  -0.5930 
 22 CL1     14.0130     7.2620    26.0820 Cl    1 Q101  -0.0550 
 23 C1      12.3020     7.4940    26.2050 C.2   1 Q101   0.0330 
 24 C2      11.4840     7.0120    27.1720 C.2   1 Q101  -0.1460 
 25 S2      11.4920     8.4280    25.0110 S.3   1 Q101   0.0240 
 26 C3      10.1590     7.3950    26.9500 C.2   1 Q101  -0.1130 
 27 C4       9.9780     8.1700    25.8110 C.2   1 Q101  -0.0920 
 28 C5       8.6800     8.6900    25.3660 C.2   1 Q101   0.0810 
 29 C6       8.4000     9.1920    24.1640 C.2   1 Q101  -0.4200 
 30 O2       6.7000    10.7350    22.9270 O.2   1 Q101  -0.5930 
 31 H142     4.4550     7.0660    19.2240 H     1 Q101   0.0600 
 32 H141     3.6420     8.6520    19.4040 H     1 Q101   0.0600 
 33 H132     5.8310     9.3490    20.0620 H     1 Q101   0.0720 
 34 H131     6.2670     7.7130    20.5630 H     1 Q101   0.0720 
 35 H83     -3.7650     3.9440    20.8100 H     1 Q101   0.0490 
 36 H82     -3.1570     4.4030    22.4310 H     1 Q101   0.0490 
 37 H81     -2.6420     5.3220    21.0030 H     1 Q101   0.0490 
 38 H73     -0.8220     2.3150    22.6890 H     1 Q101   0.0490 
 39 H72     -2.6070     2.1410    22.6520 H     1 Q101   0.0490 
 40 H71     -1.5900     1.3400    21.4210 H     1 Q101   0.0490 
 41 H6       9.1280     9.3560    23.3830 H     1 Q101   0.1940 
 42 H5       7.8910     8.5870    26.1110 H     1 Q101   0.1560 
 43 H3       9.3420     7.1290    27.6140 H     1 Q101   0.1600 
 44 H26     -0.9400     6.3560    20.0700 H     1 Q101   0.1600 
 45 H24      1.7510     3.1130    20.9590 H     1 Q101   0.1630 
 46 H21      3.5620     4.7070    21.2920 H     1 Q101   0.1530 
 47 H2      11.8060     6.4140    28.0140 H     1 Q101   0.1720 
 48 H12      4.7030     9.7920    22.0870 H     1 Q101   0.0910 
 49 H1       5.9930     7.5300    23.4610 H     1 Q101   0.4670 
@<TRIPOS>BOND
  1   1   2  am  
  2   1   9  1   
  3   1  49  1   
  4   2  21  2   
  5   2  29  1   
  6   2  30  2   
  7   3  11  1   
  8   3  12  1   
  9   3  19  am  
 10   4   7  1   
 11   4   8  1   
 12   4  18  am  
 13   5  19  2   
 14   6  18  2   
 15   7  38  1   
 16   7  39  1   
 17   7  40  1   
 18   8  35  1   
 19   8  36  1   
 20   8  37  1   
 21   9  10  1   
 22   9  19  1   
 23   9  48  1   
 24  10  11  1   
 25  10  33  1   
 26  10  34  1   
 27  11  31  1   
 28  11  32  1   
 29  12  13  ar  
 30  12  14  ar  
 31  13  15  ar  
 32  13  46  1   
 33  14  16  ar  
 34  14  20  1   
 35  15  17  ar  
 36  15  45  1   
 37  16  17  ar  
 38  16  44  1   
 39  17  18  1   
 40  22  23  1   
 41  23  24  2   
 42  23  25  1   
 43  24  26  1   
 44  24  47  1   
 45  25  27  1   
 46  26  27  2   
 47  26  43  1   
 48  27  28  1   
 49  28  29  2   
 50  28  42  1   
 51  29  41  1   
@<TRIPOS>SUBSTRUCTURE
  1 Q101  19 GROUP 4 **** **** 0

# MOE 2011.10 (io_trps.svl 2011.10)

@<TRIPOS>MOLECULE
FXA101_159
49 51 1 0 0 
SMALL
USER_CHARGES


@<TRIPOS>ATOM
  1 N1       4.9330     8.4570    21.8730 N.am  1 Q101  -0.8960 
  2 S1       5.4310     9.4640    23.0330 S.o2  1 Q101   1.3220 
  3 N2       5.5840     5.2180    20.8990 N.am  1 Q101  -0.3970 
  4 N3       8.6150     1.1190    16.8090 N.am  1 Q101  -0.4840 
  5 O3       7.2070     6.6660    21.6580 O.2   1 Q101  -0.6040 
  6 O4      10.0610     1.4490    18.4650 O.2   1 Q101  -0.6060 
  7 C7       9.6720     0.3520    16.1300 C.3   1 Q101   0.0840 
  8 C8       7.2870     1.1700    16.1770 C.3   1 Q101   0.0840 
  9 C12      4.8430     7.0420    22.1490 C.3   1 Q101   0.1690 
 10 C13      3.6300     6.3670    21.5010 C.3   1 Q101  -0.1080 
 11 C14      4.1460     5.0170    21.0150 C.3   1 Q101   0.1020 
 12 C15      6.4220     4.3420    20.1390 C.ar  1 Q101   0.0330 
 13 C21      6.7240     3.0650    20.5890 C.ar  1 Q101  -0.1060 
 14 C22      6.9810     4.7590    18.9400 C.ar  1 Q101   0.1210 
 15 C24      7.5460     2.2250    19.8650 C.ar  1 Q101  -0.0920 
 16 C26      7.8120     3.9450    18.1870 C.ar  1 Q101  -0.1400 
 17 C27      8.0850     2.6630    18.6640 C.ar  1 Q101  -0.1150 
 18 C28      8.9790     1.6970    17.9580 C.2   1 Q101   0.6760 
 19 C50      6.0420     6.3140    21.5540 C.2   1 Q101   0.6950 
 20 F1       6.7010     5.9980    18.5050 F     1 Q101  -0.1400 
 21 O1       4.3140     9.5610    23.9210 O.2   1 Q101  -0.5930 
 22 CL1     11.6550     7.0080    27.3280 Cl    1 Q101  -0.0550 
 23 C1      10.7410     8.0770    26.3190 C.2   1 Q101   0.0330 
 24 C2      11.1180     9.3020    25.8820 C.2   1 Q101  -0.1460 
 25 S2       9.1830     7.5930    25.7750 S.3   1 Q101   0.0240 
 26 C3      10.1260     9.8830    25.0870 C.2   1 Q101  -0.1130 
 27 C4       8.9960     9.0900    24.9260 C.2   1 Q101  -0.0920 
 28 C5       7.8200     9.4820    24.1400 C.2   1 Q101   0.0810 
 29 C6       6.7620     8.7190    23.8670 C.2   1 Q101  -0.4200 
 30 O2       5.8910    10.6010    22.2850 O.2   1 Q101  -0.5930 
 31 H142     3.7140     4.7280    20.0520 H     1 Q101   0.0600 
 32 H141     3.9600     4.2320    21.7550 H     1 Q101   0.0600 
 33 H132     2.7880     6.2680    22.1920 H     1 Q101   0.0720 
 34 H131     3.2830     6.9560    20.6430 H     1 Q101   0.0720 
 35 H83      7.2900     1.9400    15.4090 H     1 Q101   0.0490 
 36 H82      7.0640     0.1930    15.7370 H     1 Q101   0.0490 
 37 H81      6.5440     1.3920    16.9380 H     1 Q101   0.0490 
 38 H73      9.9540    -0.4890    16.7680 H     1 Q101   0.0490 
 39 H72      9.3220    -0.0090    15.1600 H     1 Q101   0.0490 
 40 H71     10.5530     0.9870    15.9880 H     1 Q101   0.0490 
 41 H6       6.6810     7.6710    24.1150 H     1 Q101   0.1940 
 42 H5       7.8420    10.5210    23.8130 H     1 Q101   0.1560 
 43 H3      10.2290    10.8580    24.6210 H     1 Q101   0.1600 
 44 H26      8.2240     4.3020    17.2530 H     1 Q101   0.1600 
 45 H24      7.7930     1.2480    20.2580 H     1 Q101   0.1630 
 46 H21      6.3220     2.7110    21.5350 H     1 Q101   0.1530 
 47 H2      12.0650     9.7750    26.1060 H     1 Q101   0.1720 
 48 H12      4.8380     6.8200    23.2230 H     1 Q101   0.0910 
 49 H1       5.1500     8.7260    20.9100 H     1 Q101   0.4670 
@<TRIPOS>BOND
  1   1   2  am  
  2   1   9  1   
  3   1  49  1   
  4   2  21  2   
  5   2  29  1   
  6   2  30  2   
  7   3  11  1   
  8   3  12  1   
  9   3  19  am  
 10   4   7  1   
 11   4   8  1   
 12   4  18  am  
 13   5  19  2   
 14   6  18  2   
 15   7  38  1   
 16   7  39  1   
 17   7  40  1   
 18   8  35  1   
 19   8  36  1   
 20   8  37  1   
 21   9  10  1   
 22   9  19  1   
 23   9  48  1   
 24  10  11  1   
 25  10  33  1   
 26  10  34  1   
 27  11  31  1   
 28  11  32  1   
 29  12  13  ar  
 30  12  14  ar  
 31  13  15  ar  
 32  13  46  1   
 33  14  16  ar  
 34  14  20  1   
 35  15  17  ar  
 36  15  45  1   
 37  16  17  ar  
 38  16  44  1   
 39  17  18  1   
 40  22  23  1   
 41  23  24  2   
 42  23  25  1   
 43  24  26  1   
 44  24  47  1   
 45  25  27  1   
 46  26  27  2   
 47  26  43  1   
 48  27  28  1   
 49  28  29  2   
 50  28  42  1   
 51  29  41  1   
@<TRIPOS>SUBSTRUCTURE
  1 Q101   5 GROUP 4 **** **** 0

# MOE 2011.10 (io_trps.svl 2011.10)

@<TRIPOS>MOLECULE
FXA101_160
49 51 1 0 0 
SMALL
USER_CHARGES


@<TRIPOS>ATOM
  1 N1       3.4530    15.5900    12.7190 N.am  1 Q101  -0.8960 
  2 S1       2.4790    15.6610    11.4320 S.o2  1 Q101   1.3220 
  3 N2       3.2600    15.4050    16.1540 N.am  1 Q101  -0.3970 
  4 N3       3.0310    19.6160    21.0720 N.am  1 Q101  -0.4840 
  5 O3       1.9830    16.8450    14.8860 O.2   1 Q101  -0.6040 
  6 O4       3.4020    17.6930    22.1220 O.2   1 Q101  -0.6060 
  7 C7       1.6380    20.0690    20.9300 C.3   1 Q101   0.0840 
  8 C8       4.0780    20.6430    21.1990 C.3   1 Q101   0.0840 
  9 C12      3.0270    14.8680    13.8960 C.3   1 Q101   0.1690 
 10 C13      4.1200    13.9820    14.5000 C.3   1 Q101  -0.1080 
 11 C14      3.9620    14.1380    16.0090 C.3   1 Q101   0.1020 
 12 C15      3.2200    16.1240    17.3900 C.ar  1 Q101   0.0330 
 13 C21      3.8780    17.3360    17.5400 C.ar  1 Q101  -0.1060 
 14 C22      2.5410    15.6110    18.4860 C.ar  1 Q101   0.1210 
 15 C24      3.8530    18.0220    18.7380 C.ar  1 Q101  -0.0920 
 16 C26      2.4960    16.2710    19.7040 C.ar  1 Q101  -0.1400 
 17 C27      3.1590    17.4930    19.8160 C.ar  1 Q101  -0.1150 
 18 C28      3.2030    18.2910    21.0770 C.2   1 Q101   0.6760 
 19 C50      2.6740    15.8450    15.0120 C.2   1 Q101   0.6950 
 20 F1       1.9110    14.4330    18.3500 F     1 Q101  -0.1400 
 21 O1       1.1840    15.3450    11.9530 O.2   1 Q101  -0.5930 
 22 CL1      2.1700    23.7950    12.0470 Cl    1 Q101  -0.0550 
 23 C1       2.4480    22.1250    11.6850 C.2   1 Q101   0.0330 
 24 C2       3.4210    21.6170    10.8900 C.2   1 Q101  -0.1460 
 25 S2       1.4210    20.9320    12.3770 S.3   1 Q101   0.0240 
 26 C3       3.3420    20.2240    10.8240 C.2   1 Q101  -0.1130 
 27 C4       2.3050    19.6800    11.5720 C.2   1 Q101  -0.0920 
 28 C5       2.0170    18.2430    11.6580 C.2   1 Q101   0.0810 
 29 C6       2.4760    17.2960    10.8410 C.2   1 Q101  -0.4200 
 30 O2       3.1370    14.7970    10.4930 O.2   1 Q101  -0.5930 
 31 H142     4.9250    14.1640    16.5280 H     1 Q101   0.0600 
 32 H141     3.3370    13.3420    16.4260 H     1 Q101   0.0600 
 33 H132     4.0380    12.9400    14.1770 H     1 Q101   0.0720 
 34 H131     5.1110    14.3430    14.1970 H     1 Q101   0.0720 
 35 H83      4.3440    21.0030    20.2080 H     1 Q101   0.0490 
 36 H82      3.7000    21.4640    21.8140 H     1 Q101   0.0490 
 37 H81      4.9430    20.2040    21.6900 H     1 Q101   0.0490 
 38 H73      1.0750    19.7360    21.8060 H     1 Q101   0.0490 
 39 H72      1.5940    21.1580    20.8440 H     1 Q101   0.0490 
 40 H71      1.1920    19.6140    20.0400 H     1 Q101   0.0490 
 41 H6       2.8320    17.4710     9.8360 H     1 Q101   0.1940 
 42 H5       1.4070    17.9720    12.5190 H     1 Q101   0.1560 
 43 H3       4.0370    19.6140    10.2540 H     1 Q101   0.1600 
 44 H26      1.9500    15.8440    20.5350 H     1 Q101   0.1600 
 45 H24      4.4060    18.9480    18.8350 H     1 Q101   0.1630 
 46 H21      4.4390    17.7580    16.7100 H     1 Q101   0.1530 
 47 H2       4.1700    22.2040    10.3770 H     1 Q101   0.1720 
 48 H12      2.1350    14.2570    13.7170 H     1 Q101   0.0910 
 49 H1       4.0710    16.3910    12.8690 H     1 Q101   0.4670 
@<TRIPOS>BOND
  1   1   2  am  
  2   1   9  1   
  3   1  49  1   
  4   2  21  2   
  5   2  29  1   
  6   2  30  2   
  7   3  11  1   
  8   3  12  1   
  9   3  19  am  
 10   4   7  1   
 11   4   8  1   
 12   4  18  am  
 13   5  19  2   
 14   6  18  2   
 15   7  38  1   
 16   7  39  1   
 17   7  40  1   
 18   8  35  1   
 19   8  36  1   
 20   8  37  1   
 21   9  10  1   
 22   9  19  1   
 23   9  48  1   
 24  10  11  1   
 25  10  33  1   
 26  10  34  1   
 27  11  31  1   
 28  11  32  1   
 29  12  13  ar  
 30  12  14  ar  
 31  13  15  ar  
 32  13  46  1   
 33  14  16  ar  
 34  14  20  1   
 35  15  17  ar  
 36  15  45  1   
 37  16  17  ar  
 38  16  44  1   
 39  17  18  1   
 40  22  23  1   
 41  23  24  2   
 42  23  25  1   
 43  24  26  1   
 44  24  47  1   
 45  25  27  1   
 46  26  27  2   
 47  26  43  1   
 48  27  28  1   
 49  28  29  2   
 50  28  42  1   
 51  29  41  1   
@<TRIPOS>SUBSTRUCTURE
  1 Q101   5 GROUP 4 **** **** 0

# MOE 2011.10 (io_trps.svl 2011.10)

@<TRIPOS>MOLECULE
FXA101_161
49 51 1 0 0 
SMALL
USER_CHARGES


@<TRIPOS>ATOM
  1 N1       6.0160    11.7590    15.7080 N.am  1 Q101  -0.8960 
  2 S1       5.1400    12.4920    14.5660 S.o2  1 Q101   1.3220 
  3 N2       6.1800    10.1770    18.7640 N.am  1 Q101  -0.3970 
  4 N3       8.5410     8.9250    24.7050 N.am  1 Q101  -0.4840 
  5 O3       6.2370    12.4670    18.5150 O.2   1 Q101  -0.6040 
  6 O4       9.5030    10.8480    24.1430 O.2   1 Q101  -0.6060 
  7 C7       9.6430     8.6340    25.6360 C.3   1 Q101   0.0840 
  8 C8       7.3150     8.1170    24.8150 C.3   1 Q101   0.0840 
  9 C12      5.3480    11.0220    16.7550 C.3   1 Q101   0.1690 
 10 C13      5.4940     9.5020    16.6250 C.3   1 Q101  -0.1080 
 11 C14      5.6920     9.0040    18.0520 C.3   1 Q101   0.1020 
 12 C15      6.8370    10.0880    20.0310 C.ar  1 Q101   0.0330 
 13 C21      6.2320    10.5520    21.1910 C.ar  1 Q101  -0.1060 
 14 C22      8.1150     9.5580    20.1310 C.ar  1 Q101   0.1210 
 15 C24      6.8720    10.4820    22.4120 C.ar  1 Q101  -0.0920 
 16 C26      8.7890     9.4720    21.3390 C.ar  1 Q101  -0.1400 
 17 C27      8.1460     9.9380    22.4860 C.ar  1 Q101  -0.1150 
 18 C28      8.7700     9.9200    23.8420 C.2   1 Q101   0.6760 
 19 C50      5.9740    11.3460    18.1070 C.2   1 Q101   0.6950 
 20 F1       8.7100     9.1160    19.0110 F     1 Q101  -0.1400 
 21 O1       6.0550    12.6750    13.4830 O.2   1 Q101  -0.5930 
 22 CL1     -1.1580     8.2390    12.2080 Cl    1 Q101  -0.0550 
 23 C1      -0.2860     9.6470    12.7160 C.2   1 Q101   0.0330 
 24 C2      -0.7770    10.9020    12.8480 C.2   1 Q101  -0.1460 
 25 S2       1.3810     9.5050    13.1130 S.3   1 Q101   0.0240 
 26 C3       0.2140    11.7900    13.2760 C.2   1 Q101  -0.1130 
 27 C4       1.4580    11.1980    13.4670 C.2   1 Q101  -0.0920 
 28 C5       2.6540    11.9220    13.9100 C.2   1 Q101   0.0810 
 29 C6       3.8740    11.4090    14.0720 C.2   1 Q101  -0.4200 
 30 O2       4.5830    13.6140    15.2710 O.2   1 Q101  -0.5930 
 31 H142     6.4150     8.1850    18.1100 H     1 Q101   0.0600 
 32 H141     4.7420     8.6930    18.4990 H     1 Q101   0.0600 
 33 H132     4.6300     9.0410    16.1370 H     1 Q101   0.0720 
 34 H131     6.3800     9.2580    16.0260 H     1 Q101   0.0720 
 35 H83      7.4600     7.1810    24.2800 H     1 Q101   0.0490 
 36 H82      7.1090     7.9240    25.8720 H     1 Q101   0.0490 
 37 H81      6.4860     8.6760    24.3900 H     1 Q101   0.0490 
 38 H73      9.7940     9.5060    26.2770 H     1 Q101   0.0490 
 39 H72      9.4120     7.7540    26.2420 H     1 Q101   0.0490 
 40 H71     10.5640     8.4570    25.0710 H     1 Q101   0.0490 
 41 H6       4.1250    10.3680    13.9290 H     1 Q101   0.1940 
 42 H5       2.4880    12.9890    14.0600 H     1 Q101   0.1560 
 43 H3       0.0320    12.8440    13.4610 H     1 Q101   0.1600 
 44 H26      9.7820     9.0450    21.3800 H     1 Q101   0.1600 
 45 H24      6.3900    10.8840    23.2920 H     1 Q101   0.1630 
 46 H21      5.2400    10.9940    21.1480 H     1 Q101   0.1530 
 47 H2      -1.8020    11.1900    12.6580 H     1 Q101   0.1720 
 48 H12      4.2820    11.2690    16.8330 H     1 Q101   0.0910 
 49 H1       6.9090    12.1960    15.9500 H     1 Q101   0.4670 
@<TRIPOS>BOND
  1   1   2  am  
  2   1   9  1   
  3   1  49  1   
  4   2  21  2   
  5   2  29  1   
  6   2  30  2   
  7   3  11  1   
  8   3  12  1   
  9   3  19  am  
 10   4   7  1   
 11   4   8  1   
 12   4  18  am  
 13   5  19  2   
 14   6  18  2   
 15   7  38  1   
 16   7  39  1   
 17   7  40  1   
 18   8  35  1   
 19   8  36  1   
 20   8  37  1   
 21   9  10  1   
 22   9  19  1   
 23   9  48  1   
 24  10  11  1   
 25  10  33  1   
 26  10  34  1   
 27  11  31  1   
 28  11  32  1   
 29  12  13  ar  
 30  12  14  ar  
 31  13  15  ar  
 32  13  46  1   
 33  14  16  ar  
 34  14  20  1   
 35  15  17  ar  
 36  15  45  1   
 37  16  17  ar  
 38  16  44  1   
 39  17  18  1   
 40  22  23  1   
 41  23  24  2   
 42  23  25  1   
 43  24  26  1   
 44  24  47  1   
 45  25  27  1   
 46  26  27  2   
 47  26  43  1   
 48  27  28  1   
 49  28  29  2   
 50  28  42  1   
 51  29  41  1   
@<TRIPOS>SUBSTRUCTURE
  1 Q101  19 GROUP 4 **** **** 0

# MOE 2011.10 (io_trps.svl 2011.10)

@<TRIPOS>MOLECULE
FXA101_162
49 51 1 0 0 
SMALL
USER_CHARGES


@<TRIPOS>ATOM
  1 N1       2.0880     2.8620    22.8060 N.am  1 Q101  -0.8960 
  2 S1       2.6800     1.3600    22.7770 S.o2  1 Q101   1.3220 
  3 N2       2.1320     6.0880    24.0130 N.am  1 Q101  -0.3970 
  4 N3      -1.0370    11.8110    24.2460 N.am  1 Q101  -0.4840 
  5 O3       0.5070     4.5500    24.5620 O.2   1 Q101  -0.6040 
  6 O4      -1.2940    10.9100    26.2610 O.2   1 Q101  -0.6060 
  7 C7      -2.1540    12.7200    24.5460 C.3   1 Q101   0.0840 
  8 C8      -0.2430    12.0750    23.0340 C.3   1 Q101   0.0840 
  9 C12      2.6780     3.8440    23.6860 C.3   1 Q101   0.1690 
 10 C13      3.7440     4.7120    23.0090 C.3   1 Q101  -0.1080 
 11 C14      3.5160     6.1140    23.5620 C.3   1 Q101   0.1020 
 12 C15      1.3850     7.2820    24.2660 C.ar  1 Q101   0.0330 
 13 C21      1.6750     8.0970    25.3510 C.ar  1 Q101  -0.1060 
 14 C22      0.3270     7.6430    23.4460 C.ar  1 Q101   0.1210 
 15 C24      0.9440     9.2390    25.6060 C.ar  1 Q101  -0.0920 
 16 C26     -0.4300     8.7820    23.6710 C.ar  1 Q101  -0.1400 
 17 C27     -0.1030     9.5840    24.7650 C.ar  1 Q101  -0.1150 
 18 C28     -0.8520    10.8240    25.1270 C.2   1 Q101   0.6760 
 19 C50      1.6190     4.8400    24.1460 C.2   1 Q101   0.6950 
 20 F1       0.0350     6.8530    22.3990 F     1 Q101  -0.1400 
 21 O1       4.0790     1.5280    23.0290 O.2   1 Q101  -0.5930 
 22 CL1      2.1400    -4.4090    28.5680 Cl    1 Q101  -0.0550 
 23 C1       1.9300    -3.0980    27.4560 C.2   1 Q101   0.0330 
 24 C2       0.8500    -2.2870    27.3520 C.2   1 Q101  -0.1460 
 25 S2       3.1880    -2.7290    26.3440 S.3   1 Q101   0.0240 
 26 C3       1.0260    -1.3380    26.3420 C.2   1 Q101  -0.1130 
 27 C4       2.2460    -1.4360    25.6820 C.2   1 Q101  -0.0920 
 28 C5       2.6610    -0.5540    24.5840 C.2   1 Q101   0.0810 
 29 C6       1.9650     0.4670    24.0860 C.2   1 Q101  -0.4200 
 30 O2       2.2040     0.8590    21.5190 O.2   1 Q101  -0.5930 
 31 H142     3.6640     6.8890    22.8040 H     1 Q101   0.0600 
 32 H141     4.1620     6.3100    24.4240 H     1 Q101   0.0600 
 33 H132     4.7580     4.3480    23.1970 H     1 Q101   0.0720 
 34 H131     3.5930     4.7180    21.9220 H     1 Q101   0.0720 
 35 H83     -0.7590    11.6530    22.1750 H     1 Q101   0.0490 
 36 H82     -0.1230    13.1550    22.9150 H     1 Q101   0.0490 
 37 H81      0.7380    11.6220    23.1520 H     1 Q101   0.0490 
 38 H73     -1.9350    13.2420    25.4820 H     1 Q101   0.0490 
 39 H72     -2.2940    13.4390    23.7360 H     1 Q101   0.0490 
 40 H71     -3.0740    12.1400    24.6840 H     1 Q101   0.0490 
 41 H6       0.9860     0.7690    24.4290 H     1 Q101   0.1940 
 42 H5       3.6610    -0.7670    24.2090 H     1 Q101   0.1560 
 43 H3       0.2880    -0.5800    26.1000 H     1 Q101   0.1600 
 44 H26     -1.2440     9.0360    23.0040 H     1 Q101   0.1600 
 45 H24      1.1710     9.8350    26.4800 H     1 Q101   0.1630 
 46 H21      2.4830     7.8340    26.0290 H     1 Q101   0.1530 
 47 H2      -0.0350    -2.3520    27.9700 H     1 Q101   0.1720 
 48 H12      3.1070     3.3980    24.5900 H     1 Q101   0.0910 
 49 H1       1.0890     2.9630    22.6060 H     1 Q101   0.4670 
@<TRIPOS>BOND
  1   1   2  am  
  2   1   9  1   
  3   1  49  1   
  4   2  21  2   
  5   2  29  1   
  6   2  30  2   
  7   3  11  1   
  8   3  12  1   
  9   3  19  am  
 10   4   7  1   
 11   4   8  1   
 12   4  18  am  
 13   5  19  2   
 14   6  18  2   
 15   7  38  1   
 16   7  39  1   
 17   7  40  1   
 18   8  35  1   
 19   8  36  1   
 20   8  37  1   
 21   9  10  1   
 22   9  19  1   
 23   9  48  1   
 24  10  11  1   
 25  10  33  1   
 26  10  34  1   
 27  11  31  1   
 28  11  32  1   
 29  12  13  ar  
 30  12  14  ar  
 31  13  15  ar  
 32  13  46  1   
 33  14  16  ar  
 34  14  20  1   
 35  15  17  ar  
 36  15  45  1   
 37  16  17  ar  
 38  16  44  1   
 39  17  18  1   
 40  22  23  1   
 41  23  24  2   
 42  23  25  1   
 43  24  26  1   
 44  24  47  1   
 45  25  27  1   
 46  26  27  2   
 47  26  43  1   
 48  27  28  1   
 49  28  29  2   
 50  28  42  1   
 51  29  41  1   
@<TRIPOS>SUBSTRUCTURE
  1 Q101  19 GROUP 4 **** **** 0

# MOE 2011.10 (io_trps.svl 2011.10)

@<TRIPOS>MOLECULE
FXA101_163
49 51 1 0 0 
SMALL
USER_CHARGES


@<TRIPOS>ATOM
  1 N1       6.7660     8.4480    22.1700 N.am  1 Q101  -0.8960 
  2 S1       6.4920     8.8420    23.7130 S.o2  1 Q101   1.3220 
  3 N2       5.7370     8.4250    18.8830 N.am  1 Q101  -0.3970 
  4 N3       4.7530     4.0610    14.1820 N.am  1 Q101  -0.4840 
  5 O3       5.1290     6.8150    20.4150 O.2   1 Q101  -0.6040 
  6 O4       5.4240     5.8530    13.0500 O.2   1 Q101  -0.6060 
  7 C7       5.7400     3.0850    13.6960 C.3   1 Q101   0.0840 
  8 C8       3.4690     3.5490    14.6860 C.3   1 Q101   0.0840 
  9 C12      5.9320     9.0090    21.1330 C.3   1 Q101   0.1690 
 10 C13      6.6390    10.0730    20.2870 C.3   1 Q101  -0.1080 
 11 C14      6.1670     9.8160    18.8600 C.3   1 Q101   0.1020 
 12 C15      5.5600     7.6560    17.6900 C.ar  1 Q101   0.0330 
 13 C21      6.2260     6.4530    17.5030 C.ar  1 Q101  -0.1060 
 14 C22      4.7360     8.1080    16.6700 C.ar  1 Q101   0.1210 
 15 C24      6.0700     5.7180    16.3450 C.ar  1 Q101  -0.0920 
 16 C26      4.5550     7.3990    15.4940 C.ar  1 Q101  -0.1400 
 17 C27      5.2320     6.1880    15.3450 C.ar  1 Q101  -0.1150 
 18 C28      5.1370     5.3400    14.1200 C.2   1 Q101   0.6760 
 19 C50      5.5430     7.9290    20.1310 C.2   1 Q101   0.6950 
 20 F1       4.0960     9.2770    16.8410 F     1 Q101  -0.1400 
 21 O1       5.2060     8.2820    23.9960 O.2   1 Q101  -0.5930 
 22 CL1     13.9620     7.4560    26.7400 Cl    1 Q101  -0.0550 
 23 C1      12.2720     7.5880    26.3830 C.2   1 Q101   0.0330 
 24 C2      11.2420     7.2760    27.2040 C.2   1 Q101  -0.1460 
 25 S2      11.7820     8.1760    24.8430 S.3   1 Q101   0.0240 
 26 C3      10.0120     7.5060    26.5820 C.2   1 Q101  -0.1130 
 27 C4      10.1180     7.9950    25.2850 C.2   1 Q101  -0.0920 
 28 C5       8.9690     8.3110    24.4280 C.2   1 Q101   0.0810 
 29 C6       7.6890     8.0550    24.6970 C.2   1 Q101  -0.4200 
 30 O2       6.7040    10.2620    23.7160 O.2   1 Q101  -0.5930 
 31 H142     6.9640     9.9650    18.1250 H     1 Q101   0.0600 
 32 H141     5.3070    10.4450    18.6080 H     1 Q101   0.0600 
 33 H132     6.4160    11.0900    20.6240 H     1 Q101   0.0720 
 34 H131     7.7260     9.9400    20.3420 H     1 Q101   0.0720 
 35 H83      2.8060     3.3660    13.8440 H     1 Q101   0.0490 
 36 H82      3.6470     2.6220    15.2400 H     1 Q101   0.0490 
 37 H81      3.0370     4.2840    15.3600 H     1 Q101   0.0490 
 38 H73      6.6180     3.1250    14.3460 H     1 Q101   0.0490 
 39 H72      5.3170     2.0770    13.6950 H     1 Q101   0.0490 
 40 H71      6.0510     3.3510    12.6800 H     1 Q101   0.0490 
 41 H6       7.3470     7.3860    25.4720 H     1 Q101   0.1940 
 42 H5       9.2380     8.8490    23.5200 H     1 Q101   0.1560 
 43 H3       9.0560     7.3360    27.0680 H     1 Q101   0.1600 
 44 H26      3.8970     7.7790    14.7240 H     1 Q101   0.1600 
 45 H24      6.6300     4.8030    16.2130 H     1 Q101   0.1630 
 46 H21      6.8980     6.0780    18.2710 H     1 Q101   0.1530 
 47 H2      11.3460     6.9040    28.2140 H     1 Q101   0.1720 
 48 H12      4.9980     9.4300    21.5230 H     1 Q101   0.0910 
 49 H1       7.1510     7.5160    21.9980 H     1 Q101   0.4670 
@<TRIPOS>BOND
  1   1   2  am  
  2   1   9  1   
  3   1  49  1   
  4   2  21  2   
  5   2  29  1   
  6   2  30  2   
  7   3  11  1   
  8   3  12  1   
  9   3  19  am  
 10   4   7  1   
 11   4   8  1   
 12   4  18  am  
 13   5  19  2   
 14   6  18  2   
 15   7  38  1   
 16   7  39  1   
 17   7  40  1   
 18   8  35  1   
 19   8  36  1   
 20   8  37  1   
 21   9  10  1   
 22   9  19  1   
 23   9  48  1   
 24  10  11  1   
 25  10  33  1   
 26  10  34  1   
 27  11  31  1   
 28  11  32  1   
 29  12  13  ar  
 30  12  14  ar  
 31  13  15  ar  
 32  13  46  1   
 33  14  16  ar  
 34  14  20  1   
 35  15  17  ar  
 36  15  45  1   
 37  16  17  ar  
 38  16  44  1   
 39  17  18  1   
 40  22  23  1   
 41  23  24  2   
 42  23  25  1   
 43  24  26  1   
 44  24  47  1   
 45  25  27  1   
 46  26  27  2   
 47  26  43  1   
 48  27  28  1   
 49  28  29  2   
 50  28  42  1   
 51  29  41  1   
@<TRIPOS>SUBSTRUCTURE
  1 Q101  19 GROUP 4 **** **** 0

# MOE 2011.10 (io_trps.svl 2011.10)

@<TRIPOS>MOLECULE
FXA101_164
49 51 1 0 0 
SMALL
USER_CHARGES


@<TRIPOS>ATOM
  1 N1       3.0270    -6.0010    21.9060 N.am  1 Q101  -0.8960 
  2 S1       3.5770    -7.1830    20.9520 S.o2  1 Q101   1.3220 
  3 N2       1.9700    -2.7240    21.8200 N.am  1 Q101  -0.3970 
  4 N3       2.5050     3.7000    22.7920 N.am  1 Q101  -0.4840 
  5 O3       3.9550    -3.4430    20.8950 O.2   1 Q101  -0.6040 
  6 O4       4.5790     3.0480    22.3300 O.2   1 Q101  -0.6060 
  7 C7       2.7430     4.4460    24.0380 C.3   1 Q101   0.0840 
  8 C8       1.3260     4.0620    21.9880 C.3   1 Q101   0.0840 
  9 C12      2.1330    -5.0050    21.3620 C.3   1 Q101   0.1690 
 10 C13      0.8870    -4.7640    22.2210 C.3   1 Q101  -0.1080 
 11 C14      0.6620    -3.2570    22.1720 C.3   1 Q101   0.1020 
 12 C15      2.3170    -1.3490    22.0160 C.ar  1 Q101   0.0330 
 13 C21      2.2990    -0.4450    20.9630 C.ar  1 Q101  -0.1060 
 14 C22      2.7080    -0.8870    23.2640 C.ar  1 Q101   0.1210 
 15 C24      2.6490     0.8770    21.1470 C.ar  1 Q101  -0.0920 
 16 C26      3.0670     0.4320    23.4860 C.ar  1 Q101  -0.1400 
 17 C27      3.0270     1.3160    22.4070 C.ar  1 Q101  -0.1150 
 18 C28      3.4080     2.7560    22.5110 C.2   1 Q101   0.6760 
 19 C50      2.8260    -3.6480    21.3160 C.2   1 Q101   0.6950 
 20 F1       2.7370    -1.7600    24.2840 F     1 Q101  -0.1400 
 21 O1       2.4000    -7.8880    20.5490 O.2   1 Q101  -0.5930 
 22 CL1      6.1480    -4.0330    14.1140 Cl    1 Q101  -0.0550 
 23 C1       5.2040    -5.0630    15.1380 C.2   1 Q101   0.0330 
 24 C2       4.2360    -5.9270    14.7500 C.2   1 Q101  -0.1460 
 25 S2       5.4760    -5.0380    16.8360 S.3   1 Q101   0.0240 
 26 C3       3.6840    -6.5920    15.8480 C.2   1 Q101  -0.1130 
 27 C4       4.2390    -6.2270    17.0680 C.2   1 Q101  -0.0920 
 28 C5       3.8230    -6.7820    18.3610 C.2   1 Q101   0.0810 
 29 C6       4.3150    -6.4560    19.5560 C.2   1 Q101  -0.4200 
 30 O2       4.5780    -7.8070    21.7710 O.2   1 Q101  -0.5930 
 31 H142     0.3230    -2.8560    23.1320 H     1 Q101   0.0600 
 32 H141    -0.0490    -2.9880    21.3850 H     1 Q101   0.0600 
 33 H132     0.0200    -5.3280    21.8650 H     1 Q101   0.0720 
 34 H131     1.0770    -5.0730    23.2570 H     1 Q101   0.0720 
 35 H83      0.4510     3.5640    22.3990 H     1 Q101   0.0490 
 36 H82      1.1960     5.1480    22.0150 H     1 Q101   0.0490 
 37 H81      1.4940     3.7520    20.9600 H     1 Q101   0.0490 
 38 H73      3.6790     5.0010    23.9370 H     1 Q101   0.0490 
 39 H72      1.9160     5.1310    24.2400 H     1 Q101   0.0490 
 40 H71      2.8480     3.7440    24.8720 H     1 Q101   0.0490 
 41 H6       5.1460    -5.7840    19.7140 H     1 Q101   0.1940 
 42 H5       2.9970    -7.4890    18.2860 H     1 Q101   0.1560 
 43 H3       2.9020    -7.3410    15.7600 H     1 Q101   0.1600 
 44 H26      3.3600     0.7580    24.4760 H     1 Q101   0.1600 
 45 H24      2.6600     1.5500    20.3000 H     1 Q101   0.1630 
 46 H21      2.0190    -0.7750    19.9660 H     1 Q101   0.1530 
 47 H2       3.9300    -6.0940    13.7260 H     1 Q101   0.1720 
 48 H12      1.8170    -5.2340    20.3380 H     1 Q101   0.0910 
 49 H1       3.6440    -5.7020    22.6640 H     1 Q101   0.4670 
@<TRIPOS>BOND
  1   1   2  am  
  2   1   9  1   
  3   1  49  1   
  4   2  21  2   
  5   2  29  1   
  6   2  30  2   
  7   3  11  1   
  8   3  12  1   
  9   3  19  am  
 10   4   7  1   
 11   4   8  1   
 12   4  18  am  
 13   5  19  2   
 14   6  18  2   
 15   7  38  1   
 16   7  39  1   
 17   7  40  1   
 18   8  35  1   
 19   8  36  1   
 20   8  37  1   
 21   9  10  1   
 22   9  19  1   
 23   9  48  1   
 24  10  11  1   
 25  10  33  1   
 26  10  34  1   
 27  11  31  1   
 28  11  32  1   
 29  12  13  ar  
 30  12  14  ar  
 31  13  15  ar  
 32  13  46  1   
 33  14  16  ar  
 34  14  20  1   
 35  15  17  ar  
 36  15  45  1   
 37  16  17  ar  
 38  16  44  1   
 39  17  18  1   
 40  22  23  1   
 41  23  24  2   
 42  23  25  1   
 43  24  26  1   
 44  24  47  1   
 45  25  27  1   
 46  26  27  2   
 47  26  43  1   
 48  27  28  1   
 49  28  29  2   
 50  28  42  1   
 51  29  41  1   
@<TRIPOS>SUBSTRUCTURE
  1 Q101   5 GROUP 4 **** **** 0

# MOE 2011.10 (io_trps.svl 2011.10)

@<TRIPOS>MOLECULE
FXA101_165
49 51 1 0 0 
SMALL
USER_CHARGES


@<TRIPOS>ATOM
  1 N1       6.2140     8.5260    22.9010 N.am  1 Q101  -0.8960 
  2 S1       7.7600     8.7620    23.3060 S.o2  1 Q101   1.3220 
  3 N2       2.9520     9.6250    23.0190 N.am  1 Q101  -0.3970 
  4 N3      -2.8850     7.2020    24.6950 N.am  1 Q101  -0.4840 
  5 O3       4.0140     8.6080    24.7930 O.2   1 Q101  -0.6040 
  6 O4      -3.1060     9.4070    24.8630 O.2   1 Q101  -0.6060 
  7 C7      -4.0340     6.8870    23.8310 C.3   1 Q101   0.0840 
  8 C8      -2.3750     6.1390    25.5770 C.3   1 Q101   0.0840 
  9 C12      5.2840     9.6280    22.9700 C.3   1 Q101   0.1690 
 10 C13      4.7640    10.0800    21.6020 C.3   1 Q101  -0.1080 
 11 C14      3.2870    10.3880    21.8260 C.3   1 Q101   0.1020 
 12 C15      1.6010     9.3260    23.3850 C.ar  1 Q101   0.0330 
 13 C21      0.9460    10.0500    24.3710 C.ar  1 Q101  -0.1060 
 14 C22      0.9170     8.2820    22.7810 C.ar  1 Q101   0.1210 
 15 C24     -0.3520     9.7530    24.7370 C.ar  1 Q101  -0.0920 
 16 C26     -0.3850     7.9540    23.1220 C.ar  1 Q101  -0.1400 
 17 C27     -1.0170     8.7100    24.1100 C.ar  1 Q101  -0.1150 
 18 C28     -2.4090     8.4460    24.5820 C.2   1 Q101   0.6760 
 19 C50      4.0300     9.2100    23.7300 C.2   1 Q101   0.6950 
 20 F1       1.5490     7.5720    21.8330 F     1 Q101  -0.1400 
 21 O1       8.1850     9.8360    22.4620 O.2   1 Q101  -0.5930 
 22 CL1     13.6880     7.2890    25.6600 Cl    1 Q101  -0.0550 
 23 C1      12.0170     7.4420    26.0860 C.2   1 Q101   0.0330 
 24 C2      11.4210     6.9860    27.2140 C.2   1 Q101  -0.1460 
 25 S2      10.9460     8.2520    25.0120 S.3   1 Q101   0.0240 
 26 C3      10.0560     7.2860    27.2210 C.2   1 Q101  -0.1130 
 27 C4       9.6230     7.9730    26.0930 C.2   1 Q101  -0.0920 
 28 C5       8.2360     8.3950    25.8690 C.2   1 Q101   0.0810 
 29 C6       7.8160     9.2790    24.9640 C.2   1 Q101  -0.4200 
 30 O2       8.3220     7.4460    23.1790 O.2   1 Q101  -0.5930 
 31 H142     2.6650    10.0810    20.9800 H     1 Q101   0.0600 
 32 H141     3.1320    11.4510    22.0340 H     1 Q101   0.0600 
 33 H132     5.3150    10.9390    21.2080 H     1 Q101   0.0720 
 34 H131     4.8610     9.2650    20.8730 H     1 Q101   0.0720 
 35 H83     -2.9850     6.1030    26.4770 H     1 Q101   0.0490 
 36 H82     -2.4220     5.1830    25.0470 H     1 Q101   0.0490 
 37 H81     -1.3390     6.3540    25.8250 H     1 Q101   0.0490 
 38 H73     -3.7110     6.9490    22.7890 H     1 Q101   0.0490 
 39 H72     -4.4170     5.8870    24.0500 H     1 Q101   0.0490 
 40 H71     -4.8270     7.6260    23.9910 H     1 Q101   0.0490 
 41 H6       7.4970    10.2860    25.1920 H     1 Q101   0.1940 
 42 H5       7.5140     7.8700    26.4940 H     1 Q101   0.1560 
 43 H3       9.3920     7.0250    28.0400 H     1 Q101   0.1600 
 44 H26     -0.8900     7.1370    22.6230 H     1 Q101   0.1600 
 45 H24     -0.8240    10.3110    25.5340 H     1 Q101   0.1630 
 46 H21      1.4580    10.8610    24.8830 H     1 Q101   0.1530 
 47 H2      11.9280     6.4630    28.0140 H     1 Q101   0.1720 
 48 H12      5.6960    10.4980    23.4960 H     1 Q101   0.0910 
 49 H1       5.8350     7.5910    23.0710 H     1 Q101   0.4670 
@<TRIPOS>BOND
  1   1   2  am  
  2   1   9  1   
  3   1  49  1   
  4   2  21  2   
  5   2  29  1   
  6   2  30  2   
  7   3  11  1   
  8   3  12  1   
  9   3  19  am  
 10   4   7  1   
 11   4   8  1   
 12   4  18  am  
 13   5  19  2   
 14   6  18  2   
 15   7  38  1   
 16   7  39  1   
 17   7  40  1   
 18   8  35  1   
 19   8  36  1   
 20   8  37  1   
 21   9  10  1   
 22   9  19  1   
 23   9  48  1   
 24  10  11  1   
 25  10  33  1   
 26  10  34  1   
 27  11  31  1   
 28  11  32  1   
 29  12  13  ar  
 30  12  14  ar  
 31  13  15  ar  
 32  13  46  1   
 33  14  16  ar  
 34  14  20  1   
 35  15  17  ar  
 36  15  45  1   
 37  16  17  ar  
 38  16  44  1   
 39  17  18  1   
 40  22  23  1   
 41  23  24  2   
 42  23  25  1   
 43  24  26  1   
 44  24  47  1   
 45  25  27  1   
 46  26  27  2   
 47  26  43  1   
 48  27  28  1   
 49  28  29  2   
 50  28  42  1   
 51  29  41  1   
@<TRIPOS>SUBSTRUCTURE
  1 Q101   5 GROUP 4 **** **** 0

# MOE 2011.10 (io_trps.svl 2011.10)

@<TRIPOS>MOLECULE
FXA101_166
49 51 1 0 0 
SMALL
USER_CHARGES


@<TRIPOS>ATOM
  1 N1       6.7070     8.3480    22.7740 N.am  1 Q101  -0.8960 
  2 S1       6.7400     8.6680    24.3560 S.o2  1 Q101   1.3220 
  3 N2       4.9620     7.0920    20.0820 N.am  1 Q101  -0.3970 
  4 N3       4.9230     4.9200    14.0040 N.am  1 Q101  -0.4840 
  5 O3       7.2090     6.7130    20.4280 O.2   1 Q101  -0.6040 
  6 O4       4.8080     7.1140    13.6680 O.2   1 Q101  -0.6060 
  7 C7       3.6170     4.3040    13.7250 C.3   1 Q101   0.0840 
  8 C8       6.1300     4.1120    13.7640 C.3   1 Q101   0.0840 
  9 C12      5.7430     7.4040    22.2580 C.3   1 Q101   0.1690 
 10 C13      4.3220     7.9710    22.1600 C.3   1 Q101  -0.1080 
 11 C14      3.7700     7.4180    20.8510 C.3   1 Q101   0.1020 
 12 C15      4.9310     6.8880    18.6660 C.ar  1 Q101   0.0330 
 13 C21      4.4950     5.6880    18.1210 C.ar  1 Q101  -0.1060 
 14 C22      5.3640     7.8780    17.7970 C.ar  1 Q101   0.1210 
 15 C24      4.4800     5.4840    16.7570 C.ar  1 Q101  -0.0920 
 16 C26      5.3640     7.7090    16.4220 C.ar  1 Q101  -0.1400 
 17 C27      4.9080     6.4940    15.9080 C.ar  1 Q101  -0.1150 
 18 C28      4.8770     6.1790    14.4490 C.2   1 Q101   0.6760 
 19 C50      6.0950     7.0240    20.8240 C.2   1 Q101   0.6950 
 20 F1       5.7960     9.0380    18.3190 F     1 Q101  -0.1400 
 21 O1       6.1960     7.4930    24.9650 O.2   1 Q101  -0.5930 
 22 CL1     14.4140     7.4520    25.8980 Cl    1 Q101  -0.0550 
 23 C1      12.7190     7.5220    26.2450 C.2   1 Q101   0.0330 
 24 C2      12.1240     7.2840    27.4380 C.2   1 Q101  -0.1460 
 25 S2      11.6200     7.9360    24.9890 S.3   1 Q101   0.0240 
 26 C3      10.7370     7.4300    27.3490 C.2   1 Q101  -0.1130 
 27 C4      10.2860     7.7800    26.0820 C.2   1 Q101  -0.0920 
 28 C5       8.8750     7.9870    25.7380 C.2   1 Q101   0.0810 
 29 C6       8.3990     8.8510    24.8410 C.2   1 Q101  -0.4200 
 30 O2       6.0600     9.9310    24.4340 O.2   1 Q101  -0.5930 
 31 H142     3.1510     8.1490    20.3200 H     1 Q101   0.0600 
 32 H141     3.1980     6.5000    21.0180 H     1 Q101   0.0600 
 33 H132     3.7050     7.6990    23.0220 H     1 Q101   0.0720 
 34 H131     4.3550     9.0660    22.1110 H     1 Q101   0.0720 
 35 H83      6.3010     3.4680    14.6240 H     1 Q101   0.0490 
 36 H82      5.9850     3.5120    12.8610 H     1 Q101   0.0490 
 37 H81      6.9750     4.7790    13.6130 H     1 Q101   0.0490 
 38 H73      3.1420     4.8530    12.9070 H     1 Q101   0.0490 
 39 H72      3.7370     3.2520    13.4540 H     1 Q101   0.0490 
 40 H71      2.9760     4.3830    14.6100 H     1 Q101   0.0490 
 41 H6       8.9670     9.6600    24.4070 H     1 Q101   0.1940 
 42 H5       8.1960     7.3110    26.2560 H     1 Q101   0.1560 
 43 H3      10.0680     7.3000    28.1940 H     1 Q101   0.1600 
 44 H26      5.7020     8.5070    15.7740 H     1 Q101   0.1600 
 45 H24      4.1690     4.5250    16.3630 H     1 Q101   0.1630 
 46 H21      4.1700     4.8810    18.7720 H     1 Q101   0.1530 
 47 H2      12.6450     7.0230    28.3490 H     1 Q101   0.1720 
 48 H12      5.7130     6.4720    22.8340 H     1 Q101   0.0910 
 49 H1       7.5980     8.4150    22.2750 H     1 Q101   0.4670 
@<TRIPOS>BOND
  1   1   2  am  
  2   1   9  1   
  3   1  49  1   
  4   2  21  2   
  5   2  29  1   
  6   2  30  2   
  7   3  11  1   
  8   3  12  1   
  9   3  19  am  
 10   4   7  1   
 11   4   8  1   
 12   4  18  am  
 13   5  19  2   
 14   6  18  2   
 15   7  38  1   
 16   7  39  1   
 17   7  40  1   
 18   8  35  1   
 19   8  36  1   
 20   8  37  1   
 21   9  10  1   
 22   9  19  1   
 23   9  48  1   
 24  10  11  1   
 25  10  33  1   
 26  10  34  1   
 27  11  31  1   
 28  11  32  1   
 29  12  13  ar  
 30  12  14  ar  
 31  13  15  ar  
 32  13  46  1   
 33  14  16  ar  
 34  14  20  1   
 35  15  17  ar  
 36  15  45  1   
 37  16  17  ar  
 38  16  44  1   
 39  17  18  1   
 40  22  23  1   
 41  23  24  2   
 42  23  25  1   
 43  24  26  1   
 44  24  47  1   
 45  25  27  1   
 46  26  27  2   
 47  26  43  1   
 48  27  28  1   
 49  28  29  2   
 50  28  42  1   
 51  29  41  1   
@<TRIPOS>SUBSTRUCTURE
  1 Q101   5 GROUP 4 **** **** 0

# MOE 2011.10 (io_trps.svl 2011.10)

@<TRIPOS>MOLECULE
FXA101_167
49 51 1 0 0 
SMALL
USER_CHARGES


@<TRIPOS>ATOM
  1 N1      -1.5430    11.2120    19.4860 N.am  1 Q101  -0.8960 
  2 S1      -2.3600     9.9470    20.0710 S.o2  1 Q101   1.3220 
  3 N2       1.4380    12.7790    18.7620 N.am  1 Q101  -0.3970 
  4 N3       4.0350    18.6980    19.4900 N.am  1 Q101  -0.4840 
  5 O3       0.2320    13.1700    20.6860 O.2   1 Q101  -0.6040 
  6 O4       5.3010    17.7690    17.9160 O.2   1 Q101  -0.6060 
  7 C7       4.3660    18.4790    20.9070 C.3   1 Q101   0.0840 
  8 C8       3.4180    19.9820    19.1180 C.3   1 Q101   0.0840 
  9 C12     -0.1050    11.1380    19.3690 C.3   1 Q101   0.1690 
 10 C13      0.3810    10.8520    17.9450 C.3   1 Q101  -0.1080 
 11 C14      1.6140    11.7300    17.7680 C.3   1 Q101   0.1020 
 12 C15      2.1600    14.0130    18.7130 C.ar  1 Q101   0.0330 
 13 C21      3.4060    14.1430    19.3110 C.ar  1 Q101  -0.1060 
 14 C22      1.6190    15.1260    18.0880 C.ar  1 Q101   0.1210 
 15 C24      4.0960    15.3370    19.2780 C.ar  1 Q101  -0.0920 
 16 C26      2.2820    16.3420    18.0360 C.ar  1 Q101  -0.1400 
 17 C27      3.5370    16.4330    18.6380 C.ar  1 Q101  -0.1150 
 18 C28      4.3430    17.6900    18.6690 C.2   1 Q101   0.6760 
 19 C50      0.5180    12.4850    19.7160 C.2   1 Q101   0.6950 
 20 F1       0.4090    15.0100    17.5160 F     1 Q101  -0.1400 
 21 O1      -2.2010     8.9330    19.0750 O.2   1 Q101  -0.5930 
 22 CL1     -2.0170     7.1310    27.7350 Cl    1 Q101  -0.0550 
 23 C1      -1.8010     7.8780    26.1880 C.2   1 Q101   0.0330 
 24 C2      -0.8890     8.8270    25.8640 C.2   1 Q101  -0.1460 
 25 S2      -2.8140     7.4110    24.8800 S.3   1 Q101   0.0240 
 26 C3      -1.0060     9.2020    24.5230 C.2   1 Q101  -0.1130 
 27 C4      -2.0100     8.5330    23.8340 C.2   1 Q101  -0.0920 
 28 C5      -2.3270     8.7560    22.4190 C.2   1 Q101   0.0810 
 29 C6      -1.5880     9.4330    21.5410 C.2   1 Q101  -0.4200 
 30 O2      -3.6480    10.5130    20.3610 O.2   1 Q101  -0.5930 
 31 H142     1.6800    12.1560    16.7610 H     1 Q101   0.0600 
 32 H141     2.5310    11.1780    17.9980 H     1 Q101   0.0600 
 33 H132     0.5970     9.7910    17.7840 H     1 Q101   0.0720 
 34 H131    -0.3860    11.1450    17.2170 H     1 Q101   0.0720 
 35 H83      2.3490    19.9300    19.3130 H     1 Q101   0.0490 
 36 H82      3.8740    20.7820    19.7080 H     1 Q101   0.0490 
 37 H81      3.6060    20.1700    18.0640 H     1 Q101   0.0490 
 38 H73      5.4520    18.3890    20.9990 H     1 Q101   0.0490 
 39 H72      4.0010    19.3070    21.5190 H     1 Q101   0.0490 
 40 H71      3.9120    17.5430    21.2490 H     1 Q101   0.0490 
 41 H6      -0.5500     9.6950    21.6860 H     1 Q101   0.1940 
 42 H5      -3.2400     8.2580    22.0930 H     1 Q101   0.1560 
 43 H3      -0.3610     9.9370    24.0520 H     1 Q101   0.1600 
 44 H26      1.8320    17.1870    17.5330 H     1 Q101   0.1600 
 45 H24      5.0490    15.4180    19.7840 H     1 Q101   0.1630 
 46 H21      3.8520    13.2980    19.8300 H     1 Q101   0.1530 
 47 H2      -0.1570     9.2400    26.5450 H     1 Q101   0.1720 
 48 H12      0.3370    10.4010    20.0490 H     1 Q101   0.0910 
 49 H1      -1.9450    12.1360    19.6610 H     1 Q101   0.4670 
@<TRIPOS>BOND
  1   1   2  am  
  2   1   9  1   
  3   1  49  1   
  4   2  21  2   
  5   2  29  1   
  6   2  30  2   
  7   3  11  1   
  8   3  12  1   
  9   3  19  am  
 10   4   7  1   
 11   4   8  1   
 12   4  18  am  
 13   5  19  2   
 14   6  18  2   
 15   7  38  1   
 16   7  39  1   
 17   7  40  1   
 18   8  35  1   
 19   8  36  1   
 20   8  37  1   
 21   9  10  1   
 22   9  19  1   
 23   9  48  1   
 24  10  11  1   
 25  10  33  1   
 26  10  34  1   
 27  11  31  1   
 28  11  32  1   
 29  12  13  ar  
 30  12  14  ar  
 31  13  15  ar  
 32  13  46  1   
 33  14  16  ar  
 34  14  20  1   
 35  15  17  ar  
 36  15  45  1   
 37  16  17  ar  
 38  16  44  1   
 39  17  18  1   
 40  22  23  1   
 41  23  24  2   
 42  23  25  1   
 43  24  26  1   
 44  24  47  1   
 45  25  27  1   
 46  26  27  2   
 47  26  43  1   
 48  27  28  1   
 49  28  29  2   
 50  28  42  1   
 51  29  41  1   
@<TRIPOS>SUBSTRUCTURE
  1 Q101   5 GROUP 4 **** **** 0

# MOE 2011.10 (io_trps.svl 2011.10)

@<TRIPOS>MOLECULE
FXA101_168
49 51 1 0 0 
SMALL
USER_CHARGES


@<TRIPOS>ATOM
  1 N1       4.5630     8.4810    22.1520 N.am  1 Q101  -0.8960 
  2 S1       5.6790     9.6350    22.3250 S.o2  1 Q101   1.3220 
  3 N2       4.0340     5.1540    21.4280 N.am  1 Q101  -0.3970 
  4 N3       2.1260     0.0150    17.8810 N.am  1 Q101  -0.4840 
  5 O3       5.0080     6.6350    19.9550 O.2   1 Q101  -0.6040 
  6 O4       1.4570     1.7830    16.7120 O.2   1 Q101  -0.6060 
  7 C7       1.6330    -0.4660    19.1810 C.3   1 Q101   0.0840 
  8 C8       2.6530    -0.9800    16.9340 C.3   1 Q101   0.0840 
  9 C12      4.9310     7.0980    22.3540 C.3   1 Q101   0.1690 
 10 C13      4.0900     6.3900    23.4200 C.3   1 Q101  -0.1080 
 11 C14      3.8460     4.9920    22.8620 C.3   1 Q101   0.1020 
 12 C15      3.5560     4.1980    20.4770 C.ar  1 Q101   0.0330 
 13 C21      2.2670     4.2710    19.9690 C.ar  1 Q101  -0.1060 
 14 C22      4.3630     3.1510    20.0580 C.ar  1 Q101   0.1210 
 15 C24      1.7980     3.3400    19.0640 C.ar  1 Q101  -0.0920 
 16 C26      3.9270     2.1960    19.1520 C.ar  1 Q101  -0.1400 
 17 C27      2.6290     2.3070    18.6530 C.ar  1 Q101  -0.1150 
 18 C28      2.0340     1.3340    17.6890 C.2   1 Q101   0.6760 
 19 C50      4.6790     6.2970    21.0820 C.2   1 Q101   0.6950 
 20 F1       5.6080     3.0690    20.5540 F     1 Q101  -0.1400 
 21 O1       4.9200    10.8300    22.5300 O.2   1 Q101  -0.5930 
 22 CL1     11.1390     7.0260    27.4060 Cl    1 Q101  -0.0550 
 23 C1      10.4130     8.1460    26.3020 C.2   1 Q101   0.0330 
 24 C2      10.9040     9.3530    25.9310 C.2   1 Q101  -0.1460 
 25 S2       8.9150     7.7450    25.5600 S.3   1 Q101   0.0240 
 26 C3      10.0500     9.9880    25.0250 C.2   1 Q101  -0.1130 
 27 C4       8.9120     9.2550    24.7130 C.2   1 Q101  -0.0920 
 28 C5       7.8660     9.7110    23.7900 C.2   1 Q101   0.0810 
 29 C6       6.6020     9.2900    23.7570 C.2   1 Q101  -0.4200 
 30 O2       6.4950     9.4600    21.1570 O.2   1 Q101  -0.5930 
 31 H142     2.8390     4.6250    23.0840 H     1 Q101   0.0600 
 32 H141     4.5910     4.2810    23.2350 H     1 Q101   0.0600 
 33 H132     4.5840     6.3700    24.3960 H     1 Q101   0.0720 
 34 H131     3.1300     6.9050    23.5490 H     1 Q101   0.0720 
 35 H83      3.6860    -1.2020    17.1920 H     1 Q101   0.0490 
 36 H82      2.0420    -1.8860    16.9920 H     1 Q101   0.0490 
 37 H81      2.5890    -0.5760    15.9270 H     1 Q101   0.0490 
 38 H73      0.5600    -0.2680    19.2410 H     1 Q101   0.0490 
 39 H72      1.8260    -1.5360    19.2940 H     1 Q101   0.0490 
 40 H71      2.1310     0.0820    19.9890 H     1 Q101   0.0490 
 41 H6       6.1180     8.7390    24.5510 H     1 Q101   0.1940 
 42 H5       8.1920    10.5060    23.1200 H     1 Q101   0.1560 
 43 H3      10.2600    10.9590    24.5880 H     1 Q101   0.1600 
 44 H26      4.5880     1.3980    18.8420 H     1 Q101   0.1600 
 45 H24      0.7770     3.4020    18.7130 H     1 Q101   0.1630 
 46 H21      1.5980     5.0650    20.2910 H     1 Q101   0.1530 
 47 H2      11.8370     9.7760    26.2780 H     1 Q101   0.1720 
 48 H12      5.9920     6.9750    22.6010 H     1 Q101   0.0910 
 49 H1       3.8160     8.6640    21.4770 H     1 Q101   0.4670 
@<TRIPOS>BOND
  1   1   2  am  
  2   1   9  1   
  3   1  49  1   
  4   2  21  2   
  5   2  29  1   
  6   2  30  2   
  7   3  11  1   
  8   3  12  1   
  9   3  19  am  
 10   4   7  1   
 11   4   8  1   
 12   4  18  am  
 13   5  19  2   
 14   6  18  2   
 15   7  38  1   
 16   7  39  1   
 17   7  40  1   
 18   8  35  1   
 19   8  36  1   
 20   8  37  1   
 21   9  10  1   
 22   9  19  1   
 23   9  48  1   
 24  10  11  1   
 25  10  33  1   
 26  10  34  1   
 27  11  31  1   
 28  11  32  1   
 29  12  13  ar  
 30  12  14  ar  
 31  13  15  ar  
 32  13  46  1   
 33  14  16  ar  
 34  14  20  1   
 35  15  17  ar  
 36  15  45  1   
 37  16  17  ar  
 38  16  44  1   
 39  17  18  1   
 40  22  23  1   
 41  23  24  2   
 42  23  25  1   
 43  24  26  1   
 44  24  47  1   
 45  25  27  1   
 46  26  27  2   
 47  26  43  1   
 48  27  28  1   
 49  28  29  2   
 50  28  42  1   
 51  29  41  1   
@<TRIPOS>SUBSTRUCTURE
  1 Q101  19 GROUP 4 **** **** 0

# MOE 2011.10 (io_trps.svl 2011.10)

@<TRIPOS>MOLECULE
FXA101_169
49 51 1 0 0 
SMALL
USER_CHARGES


@<TRIPOS>ATOM
  1 N1       4.8840    11.2510    15.7830 N.am  1 Q101  -0.8960 
  2 S1       4.3980    11.9500    14.4110 S.o2  1 Q101   1.3220 
  3 N2       5.5620    11.4040    19.1570 N.am  1 Q101  -0.3970 
  4 N3       8.0170     9.0560    24.6770 N.am  1 Q101  -0.4840 
  5 O3       7.1960    11.4090    17.5320 O.2   1 Q101  -0.6040 
  6 O4       9.8100     9.1540    23.3670 O.2   1 Q101  -0.6060 
  7 C7       8.8990     8.5040    25.7180 C.3   1 Q101   0.0840 
  8 C8       6.5910     9.2250    25.0030 C.3   1 Q101   0.0840 
  9 C12      4.8860    12.0140    17.0100 C.3   1 Q101   0.1690 
 10 C13      3.6390    11.7910    17.8720 C.3   1 Q101  -0.1080 
 11 C14      4.1560    11.7520    19.3060 C.3   1 Q101   0.1020 
 12 C15      6.3480    10.9060    20.2430 C.ar  1 Q101   0.0330 
 13 C21      6.3140     9.5660    20.6030 C.ar  1 Q101  -0.1060 
 14 C22      7.1500    11.7590    20.9880 C.ar  1 Q101   0.1210 
 15 C24      7.0600     9.0870    21.6600 C.ar  1 Q101  -0.0920 
 16 C26      7.9110    11.3150    22.0570 C.ar  1 Q101  -0.1400 
 17 C27      7.8610     9.9590    22.3830 C.ar  1 Q101  -0.1150 
 18 C28      8.6170     9.3600    23.5230 C.2   1 Q101   0.6760 
 19 C50      6.0420    11.5740    17.9000 C.2   1 Q101   0.6950 
 20 F1       7.1790    13.0590    20.6520 F     1 Q101  -0.1400 
 21 O1       4.2910    10.8680    13.4820 O.2   1 Q101  -0.5930 
 22 CL1      3.9680    17.6600    10.5890 Cl    1 Q101  -0.0550 
 23 C1       3.4020    16.3060    11.5080 C.2   1 Q101   0.0330 
 24 C2       2.7110    15.2390    11.0400 C.2   1 Q101  -0.1460 
 25 S2       3.7180    16.2450    13.1970 S.3   1 Q101   0.0240 
 26 C3       2.4150    14.3390    12.0680 C.2   1 Q101  -0.1130 
 27 C4       2.8860    14.7310    13.3150 C.2   1 Q101  -0.0920 
 28 C5       2.6980    13.9560    14.5470 C.2   1 Q101   0.0810 
 29 C6       2.8230    12.6360    14.6770 C.2   1 Q101  -0.4200 
 30 O2       5.3680    12.9950    14.2320 O.2   1 Q101  -0.5930 
 31 H142     3.6330    11.0090    19.9160 H     1 Q101   0.0600 
 32 H141     4.0870    12.7370    19.7790 H     1 Q101   0.0600 
 33 H132     2.8830    12.5680    17.7210 H     1 Q101   0.0720 
 34 H131     3.1740    10.8290    17.6240 H     1 Q101   0.0720 
 35 H83      6.0820     8.2730    24.8660 H     1 Q101   0.0490 
 36 H82      6.5000     9.5610    26.0400 H     1 Q101   0.0490 
 37 H81      6.1680     9.9820    24.3480 H     1 Q101   0.0490 
 38 H73      9.6290     9.2690    25.9960 H     1 Q101   0.0490 
 39 H72      8.3190     8.1990    26.5920 H     1 Q101   0.0490 
 40 H71      9.4420     7.6400    25.3190 H     1 Q101   0.0490 
 41 H6       2.0190    11.9670    14.9470 H     1 Q101   0.1940 
 42 H5       2.4870    14.5720    15.4210 H     1 Q101   0.1560 
 43 H3       1.8810    13.4070    11.9090 H     1 Q101   0.1600 
 44 H26      8.5300    12.0080    22.6110 H     1 Q101   0.1600 
 45 H24      6.9850     8.0450    21.9390 H     1 Q101   0.1630 
 46 H21      5.6810     8.8710    20.0560 H     1 Q101   0.1530 
 47 H2       2.4280    15.0890    10.0080 H     1 Q101   0.1720 
 48 H12      5.0090    13.0890    16.8390 H     1 Q101   0.0910 
 49 H1       5.5910    10.5160    15.6960 H     1 Q101   0.4670 
@<TRIPOS>BOND
  1   1   2  am  
  2   1   9  1   
  3   1  49  1   
  4   2  21  2   
  5   2  29  1   
  6   2  30  2   
  7   3  11  1   
  8   3  12  1   
  9   3  19  am  
 10   4   7  1   
 11   4   8  1   
 12   4  18  am  
 13   5  19  2   
 14   6  18  2   
 15   7  38  1   
 16   7  39  1   
 17   7  40  1   
 18   8  35  1   
 19   8  36  1   
 20   8  37  1   
 21   9  10  1   
 22   9  19  1   
 23   9  48  1   
 24  10  11  1   
 25  10  33  1   
 26  10  34  1   
 27  11  31  1   
 28  11  32  1   
 29  12  13  ar  
 30  12  14  ar  
 31  13  15  ar  
 32  13  46  1   
 33  14  16  ar  
 34  14  20  1   
 35  15  17  ar  
 36  15  45  1   
 37  16  17  ar  
 38  16  44  1   
 39  17  18  1   
 40  22  23  1   
 41  23  24  2   
 42  23  25  1   
 43  24  26  1   
 44  24  47  1   
 45  25  27  1   
 46  26  27  2   
 47  26  43  1   
 48  27  28  1   
 49  28  29  2   
 50  28  42  1   
 51  29  41  1   
@<TRIPOS>SUBSTRUCTURE
  1 Q101  19 GROUP 4 **** **** 0

# MOE 2011.10 (io_trps.svl 2011.10)

@<TRIPOS>MOLECULE
FXA101_170
49 51 1 0 0 
SMALL
USER_CHARGES


@<TRIPOS>ATOM
  1 N1       7.3670     9.1340    23.1200 N.am  1 Q101  -0.8960 
  2 S1       8.6480    10.0680    23.4310 S.o2  1 Q101   1.3220 
  3 N2       3.9480     8.7400    22.9780 N.am  1 Q101  -0.3970 
  4 N3      -1.7910     5.9560    24.1460 N.am  1 Q101  -0.4840 
  5 O3       5.1780     8.4730    24.9090 O.2   1 Q101  -0.6040 
  6 O4      -0.3780     4.5950    25.1910 O.2   1 Q101  -0.6060 
  7 C7      -2.2890     5.3800    22.8870 C.3   1 Q101   0.0840 
  8 C8      -2.6820     6.8620    24.8890 C.3   1 Q101   0.0840 
  9 C12      6.0580     9.7340    23.0080 C.3   1 Q101   0.1690 
 10 C13      5.5200     9.7690    21.5740 C.3   1 Q101  -0.1080 
 11 C14      4.0370     9.4400    21.7040 C.3   1 Q101   0.1020 
 12 C15      2.8200     7.9360    23.3360 C.ar  1 Q101   0.0330 
 13 C21      1.7040     8.4910    23.9450 C.ar  1 Q101  -0.1060 
 14 C22      2.8240     6.5680    23.1060 C.ar  1 Q101   0.1210 
 15 C24      0.6220     7.7130    24.3050 C.ar  1 Q101  -0.0920 
 16 C26      1.7570     5.7550    23.4550 C.ar  1 Q101  -0.1400 
 17 C27      0.6470     6.3490    24.0560 C.ar  1 Q101  -0.1150 
 18 C28     -0.5560     5.5820    24.4960 C.2   1 Q101   0.6760 
 19 C50      5.0340     8.9050    23.7750 C.2   1 Q101   0.6950 
 20 F1       3.9060     6.0240    22.5260 F     1 Q101  -0.1400 
 21 O1       8.8050     9.9900    24.8510 O.2   1 Q101  -0.5930 
 22 CL1      9.7000     6.0250    27.9190 Cl    1 Q101  -0.0550 
 23 C1      10.4860     6.9920    26.7160 C.2   1 Q101   0.0330 
 24 C2      11.7540     7.4660    26.7570 C.2   1 Q101  -0.1460 
 25 S2       9.6240     7.4290    25.2940 S.3   1 Q101   0.0240 
 26 C3      12.0510     8.2130    25.6130 C.2   1 Q101  -0.1130 
 27 C4      11.0000     8.3010    24.7080 C.2   1 Q101  -0.0920 
 28 C5      11.0680     9.0320    23.4370 C.2   1 Q101   0.0810 
 29 C6      10.0370     9.3620    22.6610 C.2   1 Q101  -0.4200 
 30 O2       8.2990    11.3020    22.7860 O.2   1 Q101  -0.5930 
 31 H142     3.6780     8.8070    20.8870 H     1 Q101   0.0600 
 32 H141     3.4320    10.3510    21.7620 H     1 Q101   0.0600 
 33 H132     5.6930    10.7330    21.0870 H     1 Q101   0.0720 
 34 H131     6.0130     9.0000    20.9660 H     1 Q101   0.0720 
 35 H83     -2.6120     7.8590    24.4580 H     1 Q101   0.0490 
 36 H82     -3.7080     6.4890    24.8200 H     1 Q101   0.0490 
 37 H81     -2.3810     6.8750    25.9330 H     1 Q101   0.0490 
 38 H73     -2.3690     4.2970    23.0090 H     1 Q101   0.0490 
 39 H72     -3.2620     5.8050    22.6280 H     1 Q101   0.0490 
 40 H71     -1.5750     5.5850    22.0820 H     1 Q101   0.0490 
 41 H6      10.0110     9.2340    21.5880 H     1 Q101   0.1940 
 42 H5      12.0740     9.3560    23.1740 H     1 Q101   0.1560 
 43 H3      13.0190     8.6700    25.4350 H     1 Q101   0.1600 
 44 H26      1.7930     4.6930    23.2540 H     1 Q101   0.1600 
 45 H24     -0.2190     8.1680    24.8110 H     1 Q101   0.1630 
 46 H21      1.6740     9.5560    24.1610 H     1 Q101   0.1530 
 47 H2      12.4560     7.2880    27.5600 H     1 Q101   0.1720 
 48 H12      6.0200    10.7470    23.4240 H     1 Q101   0.0910 
 49 H1       7.4060     8.1740    23.4730 H     1 Q101   0.4670 
@<TRIPOS>BOND
  1   1   2  am  
  2   1   9  1   
  3   1  49  1   
  4   2  21  2   
  5   2  29  1   
  6   2  30  2   
  7   3  11  1   
  8   3  12  1   
  9   3  19  am  
 10   4   7  1   
 11   4   8  1   
 12   4  18  am  
 13   5  19  2   
 14   6  18  2   
 15   7  38  1   
 16   7  39  1   
 17   7  40  1   
 18   8  35  1   
 19   8  36  1   
 20   8  37  1   
 21   9  10  1   
 22   9  19  1   
 23   9  48  1   
 24  10  11  1   
 25  10  33  1   
 26  10  34  1   
 27  11  31  1   
 28  11  32  1   
 29  12  13  ar  
 30  12  14  ar  
 31  13  15  ar  
 32  13  46  1   
 33  14  16  ar  
 34  14  20  1   
 35  15  17  ar  
 36  15  45  1   
 37  16  17  ar  
 38  16  44  1   
 39  17  18  1   
 40  22  23  1   
 41  23  24  2   
 42  23  25  1   
 43  24  26  1   
 44  24  47  1   
 45  25  27  1   
 46  26  27  2   
 47  26  43  1   
 48  27  28  1   
 49  28  29  2   
 50  28  42  1   
 51  29  41  1   
@<TRIPOS>SUBSTRUCTURE
  1 Q101   5 GROUP 4 **** **** 0

# MOE 2011.10 (io_trps.svl 2011.10)

@<TRIPOS>MOLECULE
FXA101_171
49 51 1 0 0 
SMALL
USER_CHARGES


@<TRIPOS>ATOM
  1 N1       5.8250     9.5260    21.7920 N.am  1 Q101  -0.8960 
  2 S1       7.0820     9.6380    22.8000 S.o2  1 Q101   1.3220 
  3 N2       4.2030     7.0210    20.0720 N.am  1 Q101  -0.3970 
  4 N3       5.1660     3.0370    15.0290 N.am  1 Q101  -0.4840 
  5 O3       6.4890     7.0960    20.3500 O.2   1 Q101  -0.6040 
  6 O4       3.0220     3.5890    14.8310 O.2   1 Q101  -0.6060 
  7 C7       5.9130     2.3660    16.1050 C.3   1 Q101   0.0840 
  8 C8       5.6680     2.8980    13.6520 C.3   1 Q101   0.0840 
  9 C12      4.9910     8.3470    21.8210 C.3   1 Q101   0.1690 
 10 C13      3.5020     8.6440    21.6120 C.3   1 Q101  -0.1080 
 11 C14      2.9980     7.5110    20.7250 C.3   1 Q101   0.1020 
 12 C15      4.1620     6.2120    18.8920 C.ar  1 Q101   0.0330 
 13 C21      3.7460     4.8880    18.9410 C.ar  1 Q101  -0.1060 
 14 C22      4.5660     6.7220    17.6680 C.ar  1 Q101   0.1210 
 15 C24      3.7220     4.1020    17.8070 C.ar  1 Q101  -0.0920 
 16 C26      4.5560     5.9630    16.5090 C.ar  1 Q101  -0.1400 
 17 C27      4.1220     4.6400    16.5920 C.ar  1 Q101  -0.1150 
 18 C28      4.0830     3.7130    15.4230 C.2   1 Q101   0.6760 
 19 C50      5.3550     7.4180    20.6680 C.2   1 Q101   0.6950 
 20 F1       4.9790     8.0000    17.6160 F     1 Q101  -0.1400 
 21 O1       7.5540    10.9780    22.6270 O.2   1 Q101  -0.5930 
 22 CL1     12.4560     7.5090    26.5640 Cl    1 Q101  -0.0550 
 23 C1      10.9720     8.1960    25.9930 C.2   1 Q101   0.0330 
 24 C2      10.8160     9.3870    25.3670 C.2   1 Q101  -0.1460 
 25 S2       9.5050     7.3240    26.2080 S.3   1 Q101   0.0240 
 26 C3       9.4740     9.6190    25.0510 C.2   1 Q101  -0.1130 
 27 C4       8.6170     8.5980    25.4410 C.2   1 Q101  -0.0920 
 28 C5       7.1660     8.6120    25.2230 C.2   1 Q101   0.0810 
 29 C6       6.4960     9.4420    24.4240 C.2   1 Q101  -0.4200 
 30 O2       7.8850     8.5090    22.4250 O.2   1 Q101  -0.5930 
 31 H142     2.2680     7.8560    19.9860 H     1 Q101   0.0600 
 32 H141     2.5680     6.7010    21.3220 H     1 Q101   0.0600 
 33 H132     2.9540     8.7100    22.5570 H     1 Q101   0.0720 
 34 H131     3.3760     9.6010    21.0920 H     1 Q101   0.0720 
 35 H83      6.4640     3.6220    13.4910 H     1 Q101   0.0490 
 36 H82      6.0450     1.8810    13.5110 H     1 Q101   0.0490 
 37 H81      4.8480     3.0700    12.9600 H     1 Q101   0.0490 
 38 H73      5.2720     1.5980    16.5450 H     1 Q101   0.0490 
 39 H72      6.8290     1.9160    15.7140 H     1 Q101   0.0490 
 40 H71      6.1660     3.0920    16.8850 H     1 Q101   0.0490 
 41 H6       5.6090     9.9890    24.7130 H     1 Q101   0.1940 
 42 H5       6.6380     7.8170    25.7480 H     1 Q101   0.1560 
 43 H3       9.1290    10.5080    24.5320 H     1 Q101   0.1600 
 44 H26      4.8710     6.3980    15.5690 H     1 Q101   0.1600 
 45 H24      3.4280     3.0640    17.8820 H     1 Q101   0.1630 
 46 H21      3.4440     4.4470    19.8870 H     1 Q101   0.1530 
 47 H2      11.6180    10.0720    25.1310 H     1 Q101   0.1720 
 48 H12      5.1100     7.7680    22.7440 H     1 Q101   0.0910 
 49 H1       5.9180    10.0030    20.8910 H     1 Q101   0.4670 
@<TRIPOS>BOND
  1   1   2  am  
  2   1   9  1   
  3   1  49  1   
  4   2  21  2   
  5   2  29  1   
  6   2  30  2   
  7   3  11  1   
  8   3  12  1   
  9   3  19  am  
 10   4   7  1   
 11   4   8  1   
 12   4  18  am  
 13   5  19  2   
 14   6  18  2   
 15   7  38  1   
 16   7  39  1   
 17   7  40  1   
 18   8  35  1   
 19   8  36  1   
 20   8  37  1   
 21   9  10  1   
 22   9  19  1   
 23   9  48  1   
 24  10  11  1   
 25  10  33  1   
 26  10  34  1   
 27  11  31  1   
 28  11  32  1   
 29  12  13  ar  
 30  12  14  ar  
 31  13  15  ar  
 32  13  46  1   
 33  14  16  ar  
 34  14  20  1   
 35  15  17  ar  
 36  15  45  1   
 37  16  17  ar  
 38  16  44  1   
 39  17  18  1   
 40  22  23  1   
 41  23  24  2   
 42  23  25  1   
 43  24  26  1   
 44  24  47  1   
 45  25  27  1   
 46  26  27  2   
 47  26  43  1   
 48  27  28  1   
 49  28  29  2   
 50  28  42  1   
 51  29  41  1   
@<TRIPOS>SUBSTRUCTURE
  1 Q101   5 GROUP 4 **** **** 0

# MOE 2011.10 (io_trps.svl 2011.10)

@<TRIPOS>MOLECULE
FXA101_172
49 51 1 0 0 
SMALL
USER_CHARGES


@<TRIPOS>ATOM
  1 N1       6.0020    11.5150    15.5260 N.am  1 Q101  -0.8960 
  2 S1       5.2470    12.4360    14.4350 S.o2  1 Q101   1.3220 
  3 N2       6.0070    10.1810    18.7020 N.am  1 Q101  -0.3970 
  4 N3       8.5220     8.8840    24.5740 N.am  1 Q101  -0.4840 
  5 O3       6.4100    12.4060    18.2590 O.2   1 Q101  -0.6040 
  6 O4       9.3070    10.9050    24.0840 O.2   1 Q101  -0.6060 
  7 C7       7.1450     8.4010    24.7600 C.3   1 Q101   0.0840 
  8 C8       9.6010     8.1830    25.2900 C.3   1 Q101   0.0840 
  9 C12      5.2580    10.9790    16.6420 C.3   1 Q101   0.1690 
 10 C13      5.1640     9.4500    16.6390 C.3   1 Q101  -0.1080 
 11 C14      5.3230     9.0450    18.1000 C.3   1 Q101   0.1020 
 12 C15      6.6790    10.0930    19.9620 C.ar  1 Q101   0.0330 
 13 C21      6.0810    10.5450    21.1300 C.ar  1 Q101  -0.1060 
 14 C22      7.9640     9.5770    20.0460 C.ar  1 Q101   0.1210 
 15 C24      6.7350    10.4760    22.3440 C.ar  1 Q101  -0.0920 
 16 C26      8.6510     9.4930    21.2460 C.ar  1 Q101  -0.1400 
 17 C27      8.0150     9.9460    22.4020 C.ar  1 Q101  -0.1150 
 18 C28      8.6540     9.9290    23.7510 C.2   1 Q101   0.6760 
 19 C50      5.9650    11.3100    17.9510 C.2   1 Q101   0.6950 
 20 F1       8.5510     9.1470    18.9170 F     1 Q101  -0.1400 
 21 O1       6.2670    12.7680    13.4880 O.2   1 Q101  -0.5930 
 22 CL1      4.0630    15.6070     8.9790 Cl    1 Q101  -0.0550 
 23 C1       3.3700    14.7240    10.2970 C.2   1 Q101   0.0330 
 24 C2       2.1590    14.9340    10.8680 C.2   1 Q101  -0.1460 
 25 S2       4.2550    13.4280    10.9990 S.3   1 Q101   0.0240 
 26 C3       1.9290    14.0320    11.9110 C.2   1 Q101  -0.1130 
 27 C4       2.9720    13.1390    12.1250 C.2   1 Q101  -0.0920 
 28 C5       2.9660    12.1010    13.1630 C.2   1 Q101   0.0810 
 29 C6       4.0320    11.4690    13.6530 C.2   1 Q101  -0.4200 
 30 O2       4.6280    13.4440    15.2490 O.2   1 Q101  -0.5930 
 31 H142     5.9120     8.1300    18.2160 H     1 Q101   0.0600 
 32 H141     4.3500     8.9240    18.5870 H     1 Q101   0.0600 
 33 H132     4.2250     9.0910    16.2060 H     1 Q101   0.0720 
 34 H131     5.9830     9.0220    16.0490 H     1 Q101   0.0720 
 35 H83      9.6530     8.5610    26.3090 H     1 Q101   0.0490 
 36 H82      9.3880     7.1100    25.2930 H     1 Q101   0.0490 
 37 H81     10.5390     8.3550    24.7700 H     1 Q101   0.0490 
 38 H73      6.7770     8.0260    23.8020 H     1 Q101   0.0490 
 39 H72      7.1140     7.6090    25.5130 H     1 Q101   0.0490 
 40 H71      6.5040     9.2310    25.0750 H     1 Q101   0.0490 
 41 H6       4.1850    10.4010    13.6100 H     1 Q101   0.1940 
 42 H5       1.9770    11.9010    13.5740 H     1 Q101   0.1560 
 43 H3       1.0130    14.0150    12.4930 H     1 Q101   0.1600 
 44 H26      9.6500     9.0770    21.2740 H     1 Q101   0.1600 
 45 H24      6.2570    10.8690    23.2310 H     1 Q101   0.1630 
 46 H21      5.0840    10.9760    21.1000 H     1 Q101   0.1530 
 47 H2       1.4520    15.6920    10.5590 H     1 Q101   0.1720 
 48 H12      4.2460    11.3960    16.7150 H     1 Q101   0.0910 
 49 H1       6.9920    11.7150    15.6860 H     1 Q101   0.4670 
@<TRIPOS>BOND
  1   1   2  am  
  2   1   9  1   
  3   1  49  1   
  4   2  21  2   
  5   2  29  1   
  6   2  30  2   
  7   3  11  1   
  8   3  12  1   
  9   3  19  am  
 10   4   7  1   
 11   4   8  1   
 12   4  18  am  
 13   5  19  2   
 14   6  18  2   
 15   7  38  1   
 16   7  39  1   
 17   7  40  1   
 18   8  35  1   
 19   8  36  1   
 20   8  37  1   
 21   9  10  1   
 22   9  19  1   
 23   9  48  1   
 24  10  11  1   
 25  10  33  1   
 26  10  34  1   
 27  11  31  1   
 28  11  32  1   
 29  12  13  ar  
 30  12  14  ar  
 31  13  15  ar  
 32  13  46  1   
 33  14  16  ar  
 34  14  20  1   
 35  15  17  ar  
 36  15  45  1   
 37  16  17  ar  
 38  16  44  1   
 39  17  18  1   
 40  22  23  1   
 41  23  24  2   
 42  23  25  1   
 43  24  26  1   
 44  24  47  1   
 45  25  27  1   
 46  26  27  2   
 47  26  43  1   
 48  27  28  1   
 49  28  29  2   
 50  28  42  1   
 51  29  41  1   
@<TRIPOS>SUBSTRUCTURE
  1 Q101  19 GROUP 4 **** **** 0

# MOE 2011.10 (io_trps.svl 2011.10)

@<TRIPOS>MOLECULE
FXA101_173
49 51 1 0 0 
SMALL
USER_CHARGES


@<TRIPOS>ATOM
  1 N1       4.3430     9.3230    19.9080 N.am  1 Q101  -0.8960 
  2 S1       2.9350     9.7230    19.2270 S.o2  1 Q101   1.3220 
  3 N2       6.1540     8.3250    22.6640 N.am  1 Q101  -0.3970 
  4 N3      11.6260     7.9370    26.1750 N.am  1 Q101  -0.4840 
  5 O3       5.8490    10.5320    22.0760 O.2   1 Q101  -0.6040 
  6 O4      11.1980    10.1160    26.0990 O.2   1 Q101  -0.6060 
  7 C7      11.0130     7.1220    27.2360 C.3   1 Q101   0.0840 
  8 C8      12.9480     7.5290    25.6720 C.3   1 Q101   0.0840 
  9 C12      4.3580     8.7820    21.2480 C.3   1 Q101   0.1690 
 10 C13      4.5740     7.2650    21.2940 C.3   1 Q101  -0.1080 
 11 C14      5.5000     7.0380    22.4830 C.3   1 Q101   0.1020 
 12 C15      7.3570     8.4750    23.4230 C.ar  1 Q101   0.0330 
 13 C21      7.3590     8.3380    24.8040 C.ar  1 Q101  -0.1060 
 14 C22      8.5550     8.7910    22.7990 C.ar  1 Q101   0.1210 
 15 C24      8.5160     8.4990    25.5400 C.ar  1 Q101  -0.0920 
 16 C26      9.7360     8.9620    23.5050 C.ar  1 Q101  -0.1400 
 17 C27      9.7020     8.8050    24.8910 C.ar  1 Q101  -0.1150 
 18 C28     10.9000     8.9810    25.7660 C.2   1 Q101   0.6760 
 19 C50      5.5340     9.3530    22.0320 C.2   1 Q101   0.6950 
 20 F1       8.5580     8.9350    21.4640 F     1 Q101  -0.1400 
 21 O1       2.2850    10.5330    20.2100 O.2   1 Q101  -0.5930 
 22 CL1      5.6030     5.4710    15.3040 Cl    1 Q101  -0.0550 
 23 C1       4.5190     6.8170    15.4190 C.2   1 Q101   0.0330 
 24 C2       3.4180     7.0400    14.6620 C.2   1 Q101  -0.1460 
 25 S2       4.8100     8.0320    16.6000 S.3   1 Q101   0.0240 
 26 C3       2.7840     8.2290    15.0310 C.2   1 Q101  -0.1130 
 27 C4       3.4100     8.9040    16.0720 C.2   1 Q101  -0.0920 
 28 C5       2.9360    10.1750    16.6330 C.2   1 Q101   0.0810 
 29 C6       3.2660    10.6870    17.8180 C.2   1 Q101  -0.4200 
 30 O2       2.4010     8.4480    18.8390 O.2   1 Q101  -0.5930 
 31 H142     6.2360     6.2500    22.2920 H     1 Q101   0.0600 
 32 H141     4.9320     6.8030    23.3890 H     1 Q101   0.0600 
 33 H132     3.6340     6.7130    21.3840 H     1 Q101   0.0720 
 34 H131     5.0670     6.9260    20.3750 H     1 Q101   0.0720 
 35 H83     13.7150     7.9080    26.3440 H     1 Q101   0.0490 
 36 H82     12.9900     6.4370    25.6230 H     1 Q101   0.0490 
 37 H81     13.0830     7.9330    24.6720 H     1 Q101   0.0490 
 38 H73     10.1010     6.6670    26.8400 H     1 Q101   0.0490 
 39 H72     11.7050     6.3480    27.5760 H     1 Q101   0.0490 
 40 H71     10.7390     7.7640    28.0800 H     1 Q101   0.0490 
 41 H6       3.7350    11.6490    17.9620 H     1 Q101   0.1940 
 42 H5       2.2950    10.7380    15.9550 H     1 Q101   0.1560 
 43 H3       1.8730     8.5900    14.5620 H     1 Q101   0.1600 
 44 H26     10.6530     9.2000    22.9830 H     1 Q101   0.1600 
 45 H24      8.4790     8.4210    26.6180 H     1 Q101   0.1630 
 46 H21      6.4350     8.1130    25.3300 H     1 Q101   0.1530 
 47 H2       3.0640     6.3860    13.8770 H     1 Q101   0.1720 
 48 H12      3.4510     9.0270    21.8130 H     1 Q101   0.0910 
 49 H1       5.1610     9.8680    19.6230 H     1 Q101   0.4670 
@<TRIPOS>BOND
  1   1   2  am  
  2   1   9  1   
  3   1  49  1   
  4   2  21  2   
  5   2  29  1   
  6   2  30  2   
  7   3  11  1   
  8   3  12  1   
  9   3  19  am  
 10   4   7  1   
 11   4   8  1   
 12   4  18  am  
 13   5  19  2   
 14   6  18  2   
 15   7  38  1   
 16   7  39  1   
 17   7  40  1   
 18   8  35  1   
 19   8  36  1   
 20   8  37  1   
 21   9  10  1   
 22   9  19  1   
 23   9  48  1   
 24  10  11  1   
 25  10  33  1   
 26  10  34  1   
 27  11  31  1   
 28  11  32  1   
 29  12  13  ar  
 30  12  14  ar  
 31  13  15  ar  
 32  13  46  1   
 33  14  16  ar  
 34  14  20  1   
 35  15  17  ar  
 36  15  45  1   
 37  16  17  ar  
 38  16  44  1   
 39  17  18  1   
 40  22  23  1   
 41  23  24  2   
 42  23  25  1   
 43  24  26  1   
 44  24  47  1   
 45  25  27  1   
 46  26  27  2   
 47  26  43  1   
 48  27  28  1   
 49  28  29  2   
 50  28  42  1   
 51  29  41  1   
@<TRIPOS>SUBSTRUCTURE
  1 Q101  19 GROUP 4 **** **** 0

# MOE 2011.10 (io_trps.svl 2011.10)

@<TRIPOS>MOLECULE
FXA101_174
49 51 1 0 0 
SMALL
USER_CHARGES


@<TRIPOS>ATOM
  1 N1       2.1600     4.6150    23.7210 N.am  1 Q101  -0.8960 
  2 S1       0.7500     3.9730    23.2620 S.o2  1 Q101   1.3220 
  3 N2       4.3860     7.2440    23.7300 N.am  1 Q101  -0.3970 
  4 N3      10.5280     8.2960    25.6010 N.am  1 Q101  -0.4840 
  5 O3       4.9070     5.1400    22.9440 O.2   1 Q101  -0.6040 
  6 O4       9.8940    10.2600    24.7750 O.2   1 Q101  -0.6060 
  7 C7      10.0680     7.6470    26.8390 C.3   1 Q101   0.0840 
  8 C8      11.8970     8.0100    25.1420 C.3   1 Q101   0.0840 
  9 C12      2.5860     5.8750    23.1580 C.3   1 Q101   0.1690 
 10 C13      2.0530     7.0960    23.9150 C.3   1 Q101  -0.1080 
 11 C14      3.2140     8.0830    23.9320 C.3   1 Q101   0.1020 
 12 C15      5.7110     7.6880    24.0330 C.ar  1 Q101   0.0330 
 13 C21      6.0890     7.9900    25.3340 C.ar  1 Q101  -0.1060 
 14 C22      6.6510     7.8570    23.0270 C.ar  1 Q101   0.1210 
 15 C24      7.3630     8.4350    25.6260 C.ar  1 Q101  -0.0920 
 16 C26      7.9380     8.3020    23.2820 C.ar  1 Q101  -0.1400 
 17 C27      8.2870     8.5850    24.6030 C.ar  1 Q101  -0.1150 
 18 C28      9.6330     9.0900    25.0060 C.2   1 Q101   0.6760 
 19 C50      4.1010     6.0060    23.2510 C.2   1 Q101   0.6950 
 20 F1       6.2880     7.5760    21.7650 F     1 Q101  -0.1400 
 21 O1       0.6160     2.8010    24.0710 O.2   1 Q101  -0.5930 
 22 CL1     -5.0840     8.7170    25.8640 Cl    1 Q101  -0.0550 
 23 C1      -3.9320     7.4260    25.9300 C.2   1 Q101   0.0330 
 24 C2      -3.7220     6.5760    26.9640 C.2   1 Q101  -0.1460 
 25 S2      -2.9180     7.1330    24.5730 S.3   1 Q101   0.0240 
 26 C3      -2.7100     5.6590    26.6680 C.2   1 Q101  -0.1130 
 27 C4      -2.1550     5.8200    25.4040 C.2   1 Q101  -0.0920 
 28 C5      -1.0770     4.9830    24.8660 C.2   1 Q101   0.0810 
 29 C6      -0.5150     5.0950    23.6620 C.2   1 Q101  -0.4200 
 30 O2       0.8970     3.8830    21.8360 O.2   1 Q101  -0.5930 
 31 H142     3.2840     8.6270    24.8800 H     1 Q101   0.0600 
 32 H141     3.1440     8.7930    23.1020 H     1 Q101   0.0600 
 33 H132     1.1550     7.5150    23.4520 H     1 Q101   0.0720 
 34 H131     1.7930     6.8180    24.9440 H     1 Q101   0.0720 
 35 H83     12.5920     8.6480    25.6820 H     1 Q101   0.0490 
 36 H82     12.1230     6.9560    25.3300 H     1 Q101   0.0490 
 37 H81     11.9560     8.1980    24.0740 H     1 Q101   0.0490 
 38 H73      9.2440     6.9720    26.5920 H     1 Q101   0.0490 
 39 H72     10.8840     7.0920    27.3090 H     1 Q101   0.0490 
 40 H71      9.6940     8.4060    27.5350 H     1 Q101   0.0490 
 41 H6      -0.8000     5.8240    22.9180 H     1 Q101   0.1940 
 42 H5      -0.7010     4.2460    25.5760 H     1 Q101   0.1560 
 43 H3      -2.3930     4.8790    27.3530 H     1 Q101   0.1600 
 44 H26      8.6470     8.4140    22.4720 H     1 Q101   0.1600 
 45 H24      7.6170     8.6960    26.6450 H     1 Q101   0.1630 
 46 H21      5.3740     7.8920    26.1460 H     1 Q101   0.1530 
 47 H2      -4.2680     6.5910    27.8980 H     1 Q101   0.1720 
 48 H12      2.3240     5.9750    22.0980 H     1 Q101   0.0910 
 49 H1       2.8970     3.9560    23.9860 H     1 Q101   0.4670 
@<TRIPOS>BOND
  1   1   2  am  
  2   1   9  1   
  3   1  49  1   
  4   2  21  2   
  5   2  29  1   
  6   2  30  2   
  7   3  11  1   
  8   3  12  1   
  9   3  19  am  
 10   4   7  1   
 11   4   8  1   
 12   4  18  am  
 13   5  19  2   
 14   6  18  2   
 15   7  38  1   
 16   7  39  1   
 17   7  40  1   
 18   8  35  1   
 19   8  36  1   
 20   8  37  1   
 21   9  10  1   
 22   9  19  1   
 23   9  48  1   
 24  10  11  1   
 25  10  33  1   
 26  10  34  1   
 27  11  31  1   
 28  11  32  1   
 29  12  13  ar  
 30  12  14  ar  
 31  13  15  ar  
 32  13  46  1   
 33  14  16  ar  
 34  14  20  1   
 35  15  17  ar  
 36  15  45  1   
 37  16  17  ar  
 38  16  44  1   
 39  17  18  1   
 40  22  23  1   
 41  23  24  2   
 42  23  25  1   
 43  24  26  1   
 44  24  47  1   
 45  25  27  1   
 46  26  27  2   
 47  26  43  1   
 48  27  28  1   
 49  28  29  2   
 50  28  42  1   
 51  29  41  1   
@<TRIPOS>SUBSTRUCTURE
  1 Q101   3 GROUP 4 **** **** 0

# MOE 2011.10 (io_trps.svl 2011.10)

@<TRIPOS>MOLECULE
FXA101_175
49 51 1 0 0 
SMALL
USER_CHARGES


@<TRIPOS>ATOM
  1 N1       6.4360     8.9460    22.2070 N.am  1 Q101  -0.8960 
  2 S1       7.3570    10.1160    22.8340 S.o2  1 Q101   1.3220 
  3 N2       3.4500     7.9190    20.8300 N.am  1 Q101  -0.3970 
  4 N3      -0.7400     2.9940    19.8950 N.am  1 Q101  -0.4840 
  5 O3       3.8760     7.9060    23.0950 O.2   1 Q101  -0.6040 
  6 O4      -1.6160     4.1780    21.5580 O.2   1 Q101  -0.6060 
  7 C7      -1.4060     1.7750    20.3800 C.3   1 Q101   0.0840 
  8 C8      -0.1910     2.9800    18.5280 C.3   1 Q101   0.0840 
  9 C12      5.1880     9.2900    21.5660 C.3   1 Q101   0.1690 
 10 C13      5.2410     9.2080    20.0370 C.3   1 Q101  -0.1080 
 11 C14      3.9000     8.6090    19.6300 C.3   1 Q101   0.1020 
 12 C15      2.4260     6.9210    20.8040 C.ar  1 Q101   0.0330 
 13 C21      1.1550     7.2060    20.3240 C.ar  1 Q101  -0.1060 
 14 C22      2.6680     5.6430    21.2860 C.ar  1 Q101   0.1210 
 15 C24      0.1600     6.2490    20.3130 C.ar  1 Q101  -0.0920 
 16 C26      1.6940     4.6570    21.2920 C.ar  1 Q101  -0.1400 
 17 C27      0.4310     4.9760    20.7920 C.ar  1 Q101  -0.1150 
 18 C28     -0.7070     4.0100    20.7610 C.2   1 Q101   0.6760 
 19 C50      4.1050     8.2920    21.9590 C.2   1 Q101   0.6950 
 20 F1       3.8920     5.3640    21.7610 F     1 Q101  -0.1400 
 21 O1       6.6200    10.5740    23.9710 O.2   1 Q101  -0.5930 
 22 CL1     13.9270     7.3820    26.4590 Cl    1 Q101  -0.0550 
 23 C1      12.2380     7.5970    26.1460 C.2   1 Q101   0.0330 
 24 C2      11.2150     6.8940    26.6900 C.2   1 Q101  -0.1460 
 25 S2      11.7350     8.8160    25.0430 S.3   1 Q101   0.0240 
 26 C3       9.9820     7.3380    26.2040 C.2   1 Q101  -0.1130 
 27 C4      10.0780     8.3810    25.2910 C.2   1 Q101  -0.0920 
 28 C5       8.9240     9.0140    24.6410 C.2   1 Q101   0.0810 
 29 C6       8.8510     9.4050    23.3690 C.2   1 Q101  -0.4200 
 30 O2       7.5930    10.9690    21.7040 O.2   1 Q101  -0.5930 
 31 H142     3.9930     7.9120    18.7920 H     1 Q101   0.0600 
 32 H141     3.1750     9.3910    19.3830 H     1 Q101   0.0600 
 33 H132     5.4220    10.1830    19.5740 H     1 Q101   0.0720 
 34 H131     6.0520     8.5400    19.7220 H     1 Q101   0.0720 
 35 H83      0.7880     2.5060    18.5450 H     1 Q101   0.0490 
 36 H82     -0.8720     2.4260    17.8760 H     1 Q101   0.0490 
 37 H81     -0.1140     4.0030    18.1700 H     1 Q101   0.0490 
 38 H73     -2.4600     2.0020    20.5550 H     1 Q101   0.0490 
 39 H72     -1.3090     0.9670    19.6510 H     1 Q101   0.0490 
 40 H71     -0.9580     1.4650    21.3310 H     1 Q101   0.0490 
 41 H6       9.6570     9.3220    22.6540 H     1 Q101   0.1940 
 42 H5       8.0540     9.1050    25.2900 H     1 Q101   0.1560 
 43 H3       9.0310     6.9210    26.5220 H     1 Q101   0.1600 
 44 H26      1.9220     3.6680    21.6690 H     1 Q101   0.1600 
 45 H24     -0.8300     6.5110    19.9660 H     1 Q101   0.1630 
 46 H21      0.9220     8.2030    19.9590 H     1 Q101   0.1530 
 47 H2      11.3270     6.0960    27.4120 H     1 Q101   0.1720 
 48 H12      4.8230    10.2820    21.8550 H     1 Q101   0.0910 
 49 H1       6.4830     8.0330    22.6650 H     1 Q101   0.4670 
@<TRIPOS>BOND
  1   1   2  am  
  2   1   9  1   
  3   1  49  1   
  4   2  21  2   
  5   2  29  1   
  6   2  30  2   
  7   3  11  1   
  8   3  12  1   
  9   3  19  am  
 10   4   7  1   
 11   4   8  1   
 12   4  18  am  
 13   5  19  2   
 14   6  18  2   
 15   7  38  1   
 16   7  39  1   
 17   7  40  1   
 18   8  35  1   
 19   8  36  1   
 20   8  37  1   
 21   9  10  1   
 22   9  19  1   
 23   9  48  1   
 24  10  11  1   
 25  10  33  1   
 26  10  34  1   
 27  11  31  1   
 28  11  32  1   
 29  12  13  ar  
 30  12  14  ar  
 31  13  15  ar  
 32  13  46  1   
 33  14  16  ar  
 34  14  20  1   
 35  15  17  ar  
 36  15  45  1   
 37  16  17  ar  
 38  16  44  1   
 39  17  18  1   
 40  22  23  1   
 41  23  24  2   
 42  23  25  1   
 43  24  26  1   
 44  24  47  1   
 45  25  27  1   
 46  26  27  2   
 47  26  43  1   
 48  27  28  1   
 49  28  29  2   
 50  28  42  1   
 51  29  41  1   
@<TRIPOS>SUBSTRUCTURE
  1 Q101  19 GROUP 4 **** **** 0

# MOE 2011.10 (io_trps.svl 2011.10)

@<TRIPOS>MOLECULE
FXA101_176
49 51 1 0 0 
SMALL
USER_CHARGES


@<TRIPOS>ATOM
  1 N1       5.5610     8.2340    21.8120 N.am  1 Q101  -0.8960 
  2 S1       6.8780     8.5750    22.6840 S.o2  1 Q101   1.3220 
  3 N2       4.1920     5.9340    19.6440 N.am  1 Q101  -0.3970 
  4 N3       3.1070     5.4260    13.2350 N.am  1 Q101  -0.4840 
  5 O3       6.2000     6.9990    19.2640 O.2   1 Q101  -0.6040 
  6 O4       2.1190     3.6310    14.0970 O.2   1 Q101  -0.6060 
  7 C7       4.3440     6.2050    13.4000 C.3   1 Q101   0.0840 
  8 C8       2.3610     5.5790    11.9750 C.3   1 Q101   0.0840 
  9 C12      5.2440     6.8580    21.5090 C.3   1 Q101   0.1690 
 10 C13      3.8180     6.4570    21.8990 C.3   1 Q101  -0.1080 
 11 C14      3.3380     5.5610    20.7620 C.3   1 Q101   0.1020 
 12 C15      3.8640     5.6150    18.2880 C.ar  1 Q101   0.0330 
 13 C21      2.6760     6.0440    17.7140 C.ar  1 Q101  -0.1060 
 14 C22      4.7180     4.8410    17.5160 C.ar  1 Q101   0.1210 
 15 C24      2.3510     5.7230    16.4120 C.ar  1 Q101  -0.0920 
 16 C26      4.4250     4.4980    16.2060 C.ar  1 Q101  -0.1400 
 17 C27      3.2270     4.9560    15.6570 C.ar  1 Q101  -0.1150 
 18 C28      2.7860     4.6390    14.2660 C.2   1 Q101   0.6760 
 19 C50      5.3030     6.6250    20.0040 C.2   1 Q101   0.6950 
 20 F1       5.8650     4.4140    18.0690 F     1 Q101  -0.1400 
 21 O1       7.4220     9.7400    22.0580 O.2   1 Q101  -0.5930 
 22 CL1     12.6950     7.7120    25.6100 Cl    1 Q101  -0.0550 
 23 C1      11.1160     8.3380    25.2750 C.2   1 Q101   0.0330 
 24 C2      10.8170     9.4240    24.5220 C.2   1 Q101  -0.1460 
 25 S2       9.7400     7.5450    25.9310 S.3   1 Q101   0.0240 
 26 C3       9.4360     9.6380    24.4710 C.2   1 Q101  -0.1130 
 27 C4       8.6940     8.7080    25.1890 C.2   1 Q101  -0.0920 
 28 C5       7.2300     8.7240    25.2890 C.2   1 Q101   0.0810 
 29 C6       6.3730     8.9730    24.2990 C.2   1 Q101  -0.4200 
 30 O2       7.5870     7.3260    22.6810 O.2   1 Q101  -0.5930 
 31 H142     2.2840     5.7250    20.5200 H     1 Q101   0.0600 
 32 H141     3.5050     4.5040    20.9940 H     1 Q101   0.0600 
 33 H132     3.7760     5.9570    22.8710 H     1 Q101   0.0720 
 34 H131     3.1780     7.3460    21.9590 H     1 Q101   0.0720 
 35 H83      1.7390     6.4690    12.0380 H     1 Q101   0.0490 
 36 H82      3.0710     5.6680    11.1480 H     1 Q101   0.0490 
 37 H81      1.7480     4.6950    11.8200 H     1 Q101   0.0490 
 38 H73      5.1850     5.5100    13.4690 H     1 Q101   0.0490 
 39 H72      4.4860     6.8860    12.5580 H     1 Q101   0.0490 
 40 H71      4.2960     6.7800    14.3310 H     1 Q101   0.0490 
 41 H6       5.3860     9.3920    24.4320 H     1 Q101   0.1940 
 42 H5       6.8580     8.4500    26.2750 H     1 Q101   0.1560 
 43 H3       8.9790    10.4460    23.9090 H     1 Q101   0.1600 
 44 H26      5.1190     3.8980    15.6310 H     1 Q101   0.1600 
 45 H24      1.4020     6.0410    16.0030 H     1 Q101   0.1630 
 46 H21      1.9720     6.6340    18.2950 H     1 Q101   0.1530 
 47 H2      11.5420    10.0460    24.0160 H     1 Q101   0.1720 
 48 H12      5.9470     6.1510    21.9660 H     1 Q101   0.0910 
 49 H1       5.2750     8.9350    21.1240 H     1 Q101   0.4670 
@<TRIPOS>BOND
  1   1   2  am  
  2   1   9  1   
  3   1  49  1   
  4   2  21  2   
  5   2  29  1   
  6   2  30  2   
  7   3  11  1   
  8   3  12  1   
  9   3  19  am  
 10   4   7  1   
 11   4   8  1   
 12   4  18  am  
 13   5  19  2   
 14   6  18  2   
 15   7  38  1   
 16   7  39  1   
 17   7  40  1   
 18   8  35  1   
 19   8  36  1   
 20   8  37  1   
 21   9  10  1   
 22   9  19  1   
 23   9  48  1   
 24  10  11  1   
 25  10  33  1   
 26  10  34  1   
 27  11  31  1   
 28  11  32  1   
 29  12  13  ar  
 30  12  14  ar  
 31  13  15  ar  
 32  13  46  1   
 33  14  16  ar  
 34  14  20  1   
 35  15  17  ar  
 36  15  45  1   
 37  16  17  ar  
 38  16  44  1   
 39  17  18  1   
 40  22  23  1   
 41  23  24  2   
 42  23  25  1   
 43  24  26  1   
 44  24  47  1   
 45  25  27  1   
 46  26  27  2   
 47  26  43  1   
 48  27  28  1   
 49  28  29  2   
 50  28  42  1   
 51  29  41  1   
@<TRIPOS>SUBSTRUCTURE
  1 Q101  19 GROUP 4 **** **** 0

# MOE 2011.10 (io_trps.svl 2011.10)

@<TRIPOS>MOLECULE
FXA101_177
49 51 1 0 0 
SMALL
USER_CHARGES


@<TRIPOS>ATOM
  1 N1       5.9820     9.1800    21.9270 N.am  1 Q101  -0.8960 
  2 S1       6.8330     9.7620    23.1700 S.o2  1 Q101   1.3220 
  3 N2       3.5650     7.0140    20.7720 N.am  1 Q101  -0.3970 
  4 N3      -0.0390     3.9730    16.2410 N.am  1 Q101  -0.4840 
  5 O3       5.5970     7.3220    19.7300 O.2   1 Q101  -0.6040 
  6 O4       0.3440     6.0010    15.4150 O.2   1 Q101  -0.6060 
  7 C7      -1.4520     3.9000    16.6480 C.3   1 Q101   0.0840 
  8 C8       0.6140     2.7300    15.7990 C.3   1 Q101   0.0840 
  9 C12      5.2690     7.9330    22.0740 C.3   1 Q101   0.1690 
 10 C13      3.9440     8.0690    22.8320 C.3   1 Q101  -0.1080 
 11 C14      2.9760     7.1500    22.0960 C.3   1 Q101   0.1020 
 12 C15      2.8210     6.5430    19.6450 C.ar  1 Q101   0.0330 
 13 C21      2.0010     7.3930    18.9170 C.ar  1 Q101  -0.1060 
 14 C22      2.8780     5.2100    19.2650 C.ar  1 Q101   0.1210 
 15 C24      1.2700     6.9350    17.8390 C.ar  1 Q101  -0.0920 
 16 C26      2.1580     4.7140    18.1900 C.ar  1 Q101  -0.1400 
 17 C27      1.3520     5.6000    17.4740 C.ar  1 Q101  -0.1150 
 18 C28      0.5120     5.1880    16.3100 C.2   1 Q101   0.6760 
 19 C50      4.8660     7.3940    20.7060 C.2   1 Q101   0.6950 
 20 F1       3.6620     4.3800    19.9720 F     1 Q101  -0.1400 
 21 O1       5.9220     9.7200    24.2720 O.2   1 Q101  -0.5930 
 22 CL1     13.4960     7.2130    27.0860 Cl    1 Q101  -0.0550 
 23 C1      12.2380     7.7390    26.0190 C.2   1 Q101   0.0330 
 24 C2      12.3790     8.1340    24.7300 C.2   1 Q101  -0.1460 
 25 S2      10.6170     7.7840    26.5880 S.3   1 Q101   0.0240 
 26 C3      11.1480     8.4940    24.1760 C.2   1 Q101  -0.1130 
 27 C4      10.0760     8.3690    25.0510 C.2   1 Q101  -0.0920 
 28 C5       8.6860     8.6890    24.7020 C.2   1 Q101   0.0810 
 29 C6       8.1560     8.6780    23.4790 C.2   1 Q101  -0.4200 
 30 O2       7.3260    11.0090    22.6570 O.2   1 Q101  -0.5930 
 31 H142     1.9680     7.5730    22.0330 H     1 Q101   0.0600 
 32 H141     2.9340     6.1620    22.5650 H     1 Q101   0.0600 
 33 H132     4.0420     7.8120    23.8910 H     1 Q101   0.0720 
 34 H131     3.5820     9.1030    22.7770 H     1 Q101   0.0720 
 35 H83      0.9420     2.1720    16.6730 H     1 Q101   0.0490 
 36 H82     -0.0990     2.1400    15.2150 H     1 Q101   0.0490 
 37 H81      1.4620     2.9840    15.1670 H     1 Q101   0.0490 
 38 H73     -2.0450     4.4970    15.9500 H     1 Q101   0.0490 
 39 H72     -1.7990     2.8640    16.6500 H     1 Q101   0.0490 
 40 H71     -1.5680     4.3270    17.6500 H     1 Q101   0.0490 
 41 H6       8.5000     8.0540    22.6670 H     1 Q101   0.1940 
 42 H5       8.0580     8.9000    25.5660 H     1 Q101   0.1560 
 43 H3      11.0300     8.8260    23.1480 H     1 Q101   0.1600 
 44 H26      2.2330     3.6700    17.9180 H     1 Q101   0.1600 
 45 H24      0.6110     7.6140    17.3130 H     1 Q101   0.1630 
 46 H21      1.9130     8.4390    19.1980 H     1 Q101   0.1530 
 47 H2      13.3150     8.1630    24.1900 H     1 Q101   0.1720 
 48 H12      5.8730     7.1540    22.5550 H     1 Q101   0.0910 
 49 H1       6.3280     9.4050    20.9910 H     1 Q101   0.4670 
@<TRIPOS>BOND
  1   1   2  am  
  2   1   9  1   
  3   1  49  1   
  4   2  21  2   
  5   2  29  1   
  6   2  30  2   
  7   3  11  1   
  8   3  12  1   
  9   3  19  am  
 10   4   7  1   
 11   4   8  1   
 12   4  18  am  
 13   5  19  2   
 14   6  18  2   
 15   7  38  1   
 16   7  39  1   
 17   7  40  1   
 18   8  35  1   
 19   8  36  1   
 20   8  37  1   
 21   9  10  1   
 22   9  19  1   
 23   9  48  1   
 24  10  11  1   
 25  10  33  1   
 26  10  34  1   
 27  11  31  1   
 28  11  32  1   
 29  12  13  ar  
 30  12  14  ar  
 31  13  15  ar  
 32  13  46  1   
 33  14  16  ar  
 34  14  20  1   
 35  15  17  ar  
 36  15  45  1   
 37  16  17  ar  
 38  16  44  1   
 39  17  18  1   
 40  22  23  1   
 41  23  24  2   
 42  23  25  1   
 43  24  26  1   
 44  24  47  1   
 45  25  27  1   
 46  26  27  2   
 47  26  43  1   
 48  27  28  1   
 49  28  29  2   
 50  28  42  1   
 51  29  41  1   
@<TRIPOS>SUBSTRUCTURE
  1 Q101  19 GROUP 4 **** **** 0

# MOE 2011.10 (io_trps.svl 2011.10)

@<TRIPOS>MOLECULE
FXA101_178
49 51 1 0 0 
SMALL
USER_CHARGES


@<TRIPOS>ATOM
  1 N1       6.0130     7.9330    20.6080 N.am  1 Q101  -0.8960 
  2 S1       6.7650     9.2330    21.2030 S.o2  1 Q101   1.3220 
  3 N2       6.4540     4.6410    19.6950 N.am  1 Q101  -0.3970 
  4 N3       6.1710     0.3440    14.7600 N.am  1 Q101  -0.4840 
  5 O3       7.6780     6.3800    18.8070 O.2   1 Q101  -0.6040 
  6 O4       8.3350     0.6320    15.1790 O.2   1 Q101  -0.6060 
  7 C7       6.5310    -0.2120    13.4460 C.3   1 Q101   0.0840 
  8 C8       4.7730     0.2140    15.2030 C.3   1 Q101   0.0840 
  9 C12      6.5020     6.6140    20.9370 C.3   1 Q101   0.1690 
 10 C13      5.4300     5.6910    21.5240 C.3   1 Q101  -0.1080 
 11 C14      5.7050     4.3260    20.9030 C.3   1 Q101   0.1020 
 12 C15      6.6090     3.7070    18.6220 C.ar  1 Q101   0.0330 
 13 C21      7.4650     2.6200    18.7310 C.ar  1 Q101  -0.1060 
 14 C22      5.9240     3.8790    17.4280 C.ar  1 Q101   0.1210 
 15 C24      7.6270     1.7270    17.6910 C.ar  1 Q101  -0.0920 
 16 C26      6.0630     3.0050    16.3620 C.ar  1 Q101  -0.1400 
 17 C27      6.9240     1.9170    16.5100 C.ar  1 Q101  -0.1150 
 18 C28      7.1750     0.9160    15.4320 C.2   1 Q101   0.6760 
 19 C50      6.9670     5.8960    19.6750 C.2   1 Q101   0.6950 
 20 F1       5.1020     4.9350    17.3130 F     1 Q101  -0.1400 
 21 O1       5.7250    10.2030    21.3540 O.2   1 Q101  -0.5930 
 22 CL1     10.7750     7.0440    27.6990 Cl    1 Q101  -0.0550 
 23 C1      10.4350     7.9760    26.2800 C.2   1 Q101   0.0330 
 24 C2      11.1730     8.9970    25.7830 C.2   1 Q101  -0.1460 
 25 S2       9.0300     7.6170    25.3550 S.3   1 Q101   0.0240 
 26 C3      10.5950     9.5200    24.6230 C.2   1 Q101  -0.1130 
 27 C4       9.4160     8.8890    24.2460 C.2   1 Q101  -0.0920 
 28 C5       8.6240     9.2610    23.0680 C.2   1 Q101   0.0810 
 29 C6       7.4000     8.8250    22.7690 C.2   1 Q101  -0.4200 
 30 O2       7.8390     9.4290    20.2700 O.2   1 Q101  -0.5930 
 31 H142     4.7840     3.7870    20.6600 H     1 Q101   0.0600 
 32 H141     6.3330     3.7130    21.5560 H     1 Q101   0.0600 
 33 H132     5.4540     5.6650    22.6170 H     1 Q101   0.0720 
 34 H131     4.4310     6.0350    21.2260 H     1 Q101   0.0720 
 35 H83      4.1850     1.0120    14.7550 H     1 Q101   0.0490 
 36 H82      4.3900    -0.7620    14.8940 H     1 Q101   0.0490 
 37 H81      4.7410     0.2790    16.2880 H     1 Q101   0.0490 
 38 H73      7.2420    -1.0290    13.5980 H     1 Q101   0.0490 
 39 H72      5.6410    -0.5770    12.9260 H     1 Q101   0.0490 
 40 H71      7.0170     0.5600    12.8410 H     1 Q101   0.0490 
 41 H6       6.7840     8.2270    23.4250 H     1 Q101   0.1940 
 42 H5       9.1070    10.0040    22.4340 H     1 Q101   0.1560 
 43 H3      11.0320    10.3350    24.0540 H     1 Q101   0.1600 
 44 H26      5.5070     3.1670    15.4480 H     1 Q101   0.1600 
 45 H24      8.3280     0.9100    17.7920 H     1 Q101   0.1630 
 46 H21      8.0350     2.4650    19.6430 H     1 Q101   0.1530 
 47 H2      12.0950     9.3620    26.2150 H     1 Q101   0.1720 
 48 H12      7.3590     6.6390    21.6210 H     1 Q101   0.0910 
 49 H1       5.5640     8.0430    19.6950 H     1 Q101   0.4670 
@<TRIPOS>BOND
  1   1   2  am  
  2   1   9  1   
  3   1  49  1   
  4   2  21  2   
  5   2  29  1   
  6   2  30  2   
  7   3  11  1   
  8   3  12  1   
  9   3  19  am  
 10   4   7  1   
 11   4   8  1   
 12   4  18  am  
 13   5  19  2   
 14   6  18  2   
 15   7  38  1   
 16   7  39  1   
 17   7  40  1   
 18   8  35  1   
 19   8  36  1   
 20   8  37  1   
 21   9  10  1   
 22   9  19  1   
 23   9  48  1   
 24  10  11  1   
 25  10  33  1   
 26  10  34  1   
 27  11  31  1   
 28  11  32  1   
 29  12  13  ar  
 30  12  14  ar  
 31  13  15  ar  
 32  13  46  1   
 33  14  16  ar  
 34  14  20  1   
 35  15  17  ar  
 36  15  45  1   
 37  16  17  ar  
 38  16  44  1   
 39  17  18  1   
 40  22  23  1   
 41  23  24  2   
 42  23  25  1   
 43  24  26  1   
 44  24  47  1   
 45  25  27  1   
 46  26  27  2   
 47  26  43  1   
 48  27  28  1   
 49  28  29  2   
 50  28  42  1   
 51  29  41  1   
@<TRIPOS>SUBSTRUCTURE
  1 Q101  19 GROUP 4 **** **** 0

# MOE 2011.10 (io_trps.svl 2011.10)

@<TRIPOS>MOLECULE
FXA101_179
49 51 1 0 0 
SMALL
USER_CHARGES


@<TRIPOS>ATOM
  1 N1       7.2410    10.2580    22.8150 N.am  1 Q101  -0.8960 
  2 S1       8.3270     9.4440    23.6910 S.o2  1 Q101   1.3220 
  3 N2       5.2780    10.0670    19.9910 N.am  1 Q101  -0.3970 
  4 N3       5.4950    12.2860    13.8820 N.am  1 Q101  -0.4840 
  5 O3       7.5610     9.7590    19.9730 O.2   1 Q101  -0.6040 
  6 O4       3.4260    11.4970    14.0670 O.2   1 Q101  -0.6060 
  7 C7       5.0520    13.0220    12.6870 C.3   1 Q101   0.0840 
  8 C8       6.9320    12.3000    14.2050 C.3   1 Q101   0.0840 
  9 C12      6.2670     9.5310    22.0340 C.3   1 Q101   0.1690 
 10 C13      4.8220     9.9740    22.2900 C.3   1 Q101  -0.1080 
 11 C14      4.1590     9.9580    20.9170 C.3   1 Q101   0.1020 
 12 C15      5.1070    10.4520    18.6240 C.ar  1 Q101   0.0330 
 13 C21      4.9860    11.7860    18.2610 C.ar  1 Q101  -0.1060 
 14 C22      5.0310     9.4960    17.6220 C.ar  1 Q101   0.1210 
 15 C24      4.8050    12.1580    16.9440 C.ar  1 Q101  -0.0920 
 16 C26      4.8490     9.8310    16.2900 C.ar  1 Q101  -0.1400 
 17 C27      4.7420    11.1830    15.9600 C.ar  1 Q101  -0.1150 
 18 C28      4.5250    11.6730    14.5670 C.2   1 Q101   0.6760 
 19 C50      6.4840     9.7940    20.5490 C.2   1 Q101   0.6950 
 20 F1       5.1380     8.2030    17.9680 F     1 Q101  -0.1400 
 21 O1       9.0750    10.4630    24.3600 O.2   1 Q101  -0.5930 
 22 CL1     13.6030     7.5140    25.4800 Cl    1 Q101  -0.0550 
 23 C1      11.9590     7.5850    26.0200 C.2   1 Q101   0.0330 
 24 C2      11.4860     7.2100    27.2330 C.2   1 Q101  -0.1460 
 25 S2      10.7500     8.1880    24.9570 S.3   1 Q101   0.0240 
 26 C3      10.1050     7.4030    27.3180 C.2   1 Q101  -0.1130 
 27 C4       9.5360     7.9270    26.1640 C.2   1 Q101  -0.0920 
 28 C5       8.1050     8.2150    26.0090 C.2   1 Q101   0.0810 
 29 C6       7.4740     8.4910    24.8680 C.2   1 Q101  -0.4200 
 30 O2       8.9400     8.5880    22.7140 O.2   1 Q101  -0.5930 
 31 H142     3.4600    10.7900    20.7830 H     1 Q101   0.0600 
 32 H141     3.6460     9.0090    20.7360 H     1 Q101   0.0600 
 33 H132     4.3100     9.3290    23.0090 H     1 Q101   0.0720 
 34 H131     4.8060    10.9940    22.6930 H     1 Q101   0.0720 
 35 H83      7.4360    11.5440    13.6070 H     1 Q101   0.0490 
 36 H82      7.3370    13.2920    13.9870 H     1 Q101   0.0490 
 37 H81      7.0550    12.0940    15.2650 H     1 Q101   0.0490 
 38 H73      4.4010    13.8400    13.0060 H     1 Q101   0.0490 
 39 H72      5.9110    13.4140    12.1370 H     1 Q101   0.0490 
 40 H71      4.4750    12.3560    12.0380 H     1 Q101   0.0490 
 41 H6       6.4780     8.1530    24.6210 H     1 Q101   0.1940 
 42 H5       7.5410     8.1340    26.9380 H     1 Q101   0.1560 
 43 H3       9.5260     7.1830    28.2100 H     1 Q101   0.1600 
 44 H26      4.8020     9.0580    15.5350 H     1 Q101   0.1600 
 45 H24      4.6780    13.2040    16.6960 H     1 Q101   0.1630 
 46 H21      5.0180    12.5630    19.0210 H     1 Q101   0.1530 
 47 H2      12.0910     6.8180    28.0390 H     1 Q101   0.1720 
 48 H12      6.3340     8.4460    22.1770 H     1 Q101   0.0910 
 49 H1       7.5360    11.1680    22.4530 H     1 Q101   0.4670 
@<TRIPOS>BOND
  1   1   2  am  
  2   1   9  1   
  3   1  49  1   
  4   2  21  2   
  5   2  29  1   
  6   2  30  2   
  7   3  11  1   
  8   3  12  1   
  9   3  19  am  
 10   4   7  1   
 11   4   8  1   
 12   4  18  am  
 13   5  19  2   
 14   6  18  2   
 15   7  38  1   
 16   7  39  1   
 17   7  40  1   
 18   8  35  1   
 19   8  36  1   
 20   8  37  1   
 21   9  10  1   
 22   9  19  1   
 23   9  48  1   
 24  10  11  1   
 25  10  33  1   
 26  10  34  1   
 27  11  31  1   
 28  11  32  1   
 29  12  13  ar  
 30  12  14  ar  
 31  13  15  ar  
 32  13  46  1   
 33  14  16  ar  
 34  14  20  1   
 35  15  17  ar  
 36  15  45  1   
 37  16  17  ar  
 38  16  44  1   
 39  17  18  1   
 40  22  23  1   
 41  23  24  2   
 42  23  25  1   
 43  24  26  1   
 44  24  47  1   
 45  25  27  1   
 46  26  27  2   
 47  26  43  1   
 48  27  28  1   
 49  28  29  2   
 50  28  42  1   
 51  29  41  1   
@<TRIPOS>SUBSTRUCTURE
  1 Q101  19 GROUP 4 **** **** 0

# MOE 2011.10 (io_trps.svl 2011.10)

@<TRIPOS>MOLECULE
FXA101_180
49 51 1 0 0 
SMALL
USER_CHARGES


@<TRIPOS>ATOM
  1 N1       8.1300    10.6420    22.5420 N.am  1 Q101  -0.8960 
  2 S1       9.0870     9.8070    23.5390 S.o2  1 Q101   1.3220 
  3 N2       5.8730    10.7620    19.9420 N.am  1 Q101  -0.3970 
  4 N3       2.8020    13.3870    14.8380 N.am  1 Q101  -0.4840 
  5 O3       8.0520    11.4920    19.7660 O.2   1 Q101  -0.6040 
  6 O4       4.1460    15.0140    15.5340 O.2   1 Q101  -0.6060 
  7 C7       1.4220    13.8550    15.0440 C.3   1 Q101   0.0840 
  8 C8       3.0500    12.4400    13.7380 C.3   1 Q101   0.0840 
  9 C12      7.3710     9.9430    21.5310 C.3   1 Q101   0.1690 
 10 C13      5.9470     9.5870    21.9700 C.3   1 Q101  -0.1080 
 11 C14      5.0850     9.8320    20.7370 C.3   1 Q101   0.1020 
 12 C15      5.3060    11.5410    18.8850 C.ar  1 Q101   0.0330 
 13 C21      5.7260    11.3880    17.5710 C.ar  1 Q101  -0.1060 
 14 C22      4.3350    12.4960    19.1500 C.ar  1 Q101   0.1210 
 15 C24      5.1910    12.1510    16.5530 C.ar  1 Q101  -0.0920 
 16 C26      3.7760    13.2810    18.1540 C.ar  1 Q101  -0.1400 
 17 C27      4.2140    13.0920    16.8430 C.ar  1 Q101  -0.1150 
 18 C28      3.7060    13.8860    15.6850 C.2   1 Q101   0.6760 
 19 C50      7.1770    10.8340    20.3100 C.2   1 Q101   0.6950 
 20 F1       3.9310    12.6560    20.4210 F     1 Q101  -0.1400 
 21 O1       9.6310    10.7970    24.4160 O.2   1 Q101  -0.5930 
 22 CL1     13.8710     7.2780    26.3860 Cl    1 Q101  -0.0550 
 23 C1      12.1500     7.4200    26.5160 C.2   1 Q101   0.0330 
 24 C2      11.3610     6.8760    27.4730 C.2   1 Q101  -0.1460 
 25 S2      11.2910     8.3360    25.3420 S.3   1 Q101   0.0240 
 26 C3      10.0170     7.1950    27.2610 C.2   1 Q101  -0.1130 
 27 C4       9.7940     7.9830    26.1380 C.2   1 Q101  -0.0920 
 28 C5       8.4700     8.4450    25.7060 C.2   1 Q101   0.0810 
 29 C6       8.0960     8.7120    24.4550 C.2   1 Q101  -0.4200 
 30 O2       9.9240     9.0740    22.6300 O.2   1 Q101  -0.5930 
 31 H142     4.1110    10.2630    20.9890 H     1 Q101   0.0600 
 32 H141     4.9440     8.9100    20.1620 H     1 Q101   0.0600 
 33 H132     5.8690     8.5600    22.3380 H     1 Q101   0.0720 
 34 H131     5.6240    10.2520    22.7810 H     1 Q101   0.0720 
 35 H83      2.8060    11.4350    14.0750 H     1 Q101   0.0490 
 36 H82      2.4270    12.7170    12.8820 H     1 Q101   0.0490 
 37 H81      4.0950    12.5040    13.4490 H     1 Q101   0.0490 
 38 H73      1.3900    14.9320    14.8570 H     1 Q101   0.0490 
 39 H72      0.7340    13.3340    14.3740 H     1 Q101   0.0490 
 40 H71      1.1250    13.6770    16.0840 H     1 Q101   0.0490 
 41 H6       7.2300     8.2850    23.9690 H     1 Q101   0.1940 
 42 H5       7.7460     8.5120    26.5170 H     1 Q101   0.1560 
 43 H3       9.2160     6.8730    27.9200 H     1 Q101   0.1600 
 44 H26      3.0140    14.0100    18.3980 H     1 Q101   0.1600 
 45 H24      5.5640    12.0340    15.5440 H     1 Q101   0.1630 
 46 H21      6.5010    10.6660    17.3280 H     1 Q101   0.1530 
 47 H2      11.7150     6.2780    28.3020 H     1 Q101   0.1720 
 48 H12      7.8710     9.0320    21.1810 H     1 Q101   0.0910 
 49 H1       8.4240    11.5970    22.3190 H     1 Q101   0.4670 
@<TRIPOS>BOND
  1   1   2  am  
  2   1   9  1   
  3   1  49  1   
  4   2  21  2   
  5   2  29  1   
  6   2  30  2   
  7   3  11  1   
  8   3  12  1   
  9   3  19  am  
 10   4   7  1   
 11   4   8  1   
 12   4  18  am  
 13   5  19  2   
 14   6  18  2   
 15   7  38  1   
 16   7  39  1   
 17   7  40  1   
 18   8  35  1   
 19   8  36  1   
 20   8  37  1   
 21   9  10  1   
 22   9  19  1   
 23   9  48  1   
 24  10  11  1   
 25  10  33  1   
 26  10  34  1   
 27  11  31  1   
 28  11  32  1   
 29  12  13  ar  
 30  12  14  ar  
 31  13  15  ar  
 32  13  46  1   
 33  14  16  ar  
 34  14  20  1   
 35  15  17  ar  
 36  15  45  1   
 37  16  17  ar  
 38  16  44  1   
 39  17  18  1   
 40  22  23  1   
 41  23  24  2   
 42  23  25  1   
 43  24  26  1   
 44  24  47  1   
 45  25  27  1   
 46  26  27  2   
 47  26  43  1   
 48  27  28  1   
 49  28  29  2   
 50  28  42  1   
 51  29  41  1   
@<TRIPOS>SUBSTRUCTURE
  1 Q101  19 GROUP 4 **** **** 0

# MOE 2011.10 (io_trps.svl 2011.10)

@<TRIPOS>MOLECULE
FXA101_181
49 51 1 0 0 
SMALL
USER_CHARGES


@<TRIPOS>ATOM
  1 N1       3.8030     6.1600    21.3690 N.am  1 Q101  -0.8960 
  2 S1       3.2970     5.2720    20.1180 S.o2  1 Q101   1.3220 
  3 N2       6.2910     8.2800    22.4560 N.am  1 Q101  -0.3970 
  4 N3      11.5940     7.9210    26.2160 N.am  1 Q101  -0.4840 
  5 O3       6.6860     6.1380    21.7050 O.2   1 Q101  -0.6040 
  6 O4      11.1900    10.1030    26.0810 O.2   1 Q101  -0.6060 
  7 C7      10.9080     7.1050    27.2290 C.3   1 Q101   0.0840 
  8 C8      12.9500     7.5170    25.8090 C.3   1 Q101   0.0840 
  9 C12      4.6270     7.3220    21.1310 C.3   1 Q101   0.1690 
 10 C13      4.0740     8.6040    21.7620 C.3   1 Q101  -0.1080 
 11 C14      5.2990     9.3350    22.3020 C.3   1 Q101   0.1020 
 12 C15      7.4600     8.4380    23.2650 C.ar  1 Q101   0.0330 
 13 C21      7.4080     8.2800    24.6430 C.ar  1 Q101  -0.1060 
 14 C22      8.6760     8.7820    22.6940 C.ar  1 Q101   0.1210 
 15 C24      8.5320     8.4480    25.4270 C.ar  1 Q101  -0.0920 
 16 C26      9.8240     8.9600    23.4490 C.ar  1 Q101  -0.1400 
 17 C27      9.7380     8.7820    24.8300 C.ar  1 Q101  -0.1150 
 18 C28     10.8960     8.9640    25.7550 C.2   1 Q101   0.6760 
 19 C50      5.9920     7.1400    21.7840 C.2   1 Q101   0.6950 
 20 F1       8.7300     8.9460    21.3620 F     1 Q101  -0.1400 
 21 O1       4.5010     4.8940    19.4450 O.2   1 Q101  -0.5930 
 22 CL1      0.4650    -1.3760    23.4450 Cl    1 Q101  -0.0550 
 23 C1       1.4900     0.0090    23.2780 C.2   1 Q101   0.0330 
 24 C2       2.4970     0.3790    24.1060 C.2   1 Q101  -0.1460 
 25 S2       1.2650     1.0660    21.9410 S.3   1 Q101   0.0240 
 26 C3       3.1090     1.5550    23.6620 C.2   1 Q101  -0.1130 
 27 C4       2.5610     2.0720    22.4950 C.2   1 Q101  -0.0920 
 28 C5       3.0290     3.2970    21.8370 C.2   1 Q101   0.0810 
 29 C6       2.5150     3.8500    20.7390 C.2   1 Q101  -0.4200 
 30 O2       2.3330     6.1330    19.4930 O.2   1 Q101  -0.5930 
 31 H142     5.1010     9.8260    23.2590 H     1 Q101   0.0600 
 32 H141     5.6740    10.0670    21.5790 H     1 Q101   0.0600 
 33 H132     3.5070     9.2100    21.0480 H     1 Q101   0.0720 
 34 H131     3.4000     8.3580    22.5920 H     1 Q101   0.0720 
 35 H83     13.6650     7.8970    26.5350 H     1 Q101   0.0490 
 36 H82     12.9980     6.4250    25.7630 H     1 Q101   0.0490 
 37 H81     13.1560     7.9210    24.8210 H     1 Q101   0.0490 
 38 H73     10.0280     6.6470    26.7690 H     1 Q101   0.0490 
 39 H72     11.5760     6.3320    27.6180 H     1 Q101   0.0490 
 40 H71     10.5720     7.7450    28.0520 H     1 Q101   0.0490 
 41 H6       1.6580     3.4680    20.2030 H     1 Q101   0.1940 
 42 H5       3.8450     3.7900    22.3640 H     1 Q101   0.1560 
 43 H3       3.9500     2.0180    24.1700 H     1 Q101   0.1600 
 44 H26     10.7580     9.2210    22.9680 H     1 Q101   0.1600 
 45 H24      8.4530     8.3540    26.5020 H     1 Q101   0.1630 
 46 H21      6.4680     8.0330    25.1280 H     1 Q101   0.1530 
 47 H2       2.8010    -0.1620    24.9920 H     1 Q101   0.1720 
 48 H12      4.8070     7.5020    20.0650 H     1 Q101   0.0910 
 49 H1       3.9510     5.6630    22.2510 H     1 Q101   0.4670 
@<TRIPOS>BOND
  1   1   2  am  
  2   1   9  1   
  3   1  49  1   
  4   2  21  2   
  5   2  29  1   
  6   2  30  2   
  7   3  11  1   
  8   3  12  1   
  9   3  19  am  
 10   4   7  1   
 11   4   8  1   
 12   4  18  am  
 13   5  19  2   
 14   6  18  2   
 15   7  38  1   
 16   7  39  1   
 17   7  40  1   
 18   8  35  1   
 19   8  36  1   
 20   8  37  1   
 21   9  10  1   
 22   9  19  1   
 23   9  48  1   
 24  10  11  1   
 25  10  33  1   
 26  10  34  1   
 27  11  31  1   
 28  11  32  1   
 29  12  13  ar  
 30  12  14  ar  
 31  13  15  ar  
 32  13  46  1   
 33  14  16  ar  
 34  14  20  1   
 35  15  17  ar  
 36  15  45  1   
 37  16  17  ar  
 38  16  44  1   
 39  17  18  1   
 40  22  23  1   
 41  23  24  2   
 42  23  25  1   
 43  24  26  1   
 44  24  47  1   
 45  25  27  1   
 46  26  27  2   
 47  26  43  1   
 48  27  28  1   
 49  28  29  2   
 50  28  42  1   
 51  29  41  1   
@<TRIPOS>SUBSTRUCTURE
  1 Q101   5 GROUP 4 **** **** 0

# MOE 2011.10 (io_trps.svl 2011.10)

@<TRIPOS>MOLECULE
FXA101_182
49 51 1 0 0 
SMALL
USER_CHARGES


@<TRIPOS>ATOM
  1 N1       5.0100    -6.3300    18.4540 N.am  1 Q101  -0.8960 
  2 S1       5.2270    -6.3960    16.8550 S.o2  1 Q101   1.3220 
  3 N2       3.0470    -6.8150    21.2430 N.am  1 Q101  -0.3970 
  4 N3       2.8280    -4.7370    27.3840 N.am  1 Q101  -0.4840 
  5 O3       3.5040    -4.7370    20.3580 O.2   1 Q101  -0.6040 
  6 O4       0.7860    -5.5590    27.0810 O.2   1 Q101  -0.6060 
  7 C7       2.8670    -3.2660    27.3460 C.3   1 Q101   0.0840 
  8 C8       3.8020    -5.4280    28.2440 C.3   1 Q101   0.0840 
  9 C12      3.7560    -6.7680    19.0210 C.3   1 Q101   0.1690 
 10 C13      3.7790    -8.2190    19.5130 C.3   1 Q101  -0.1080 
 11 C14      2.9830    -8.2040    20.8130 C.3   1 Q101   0.1020 
 12 C15      2.7510    -6.4110    22.5830 C.ar  1 Q101   0.0330 
 13 C21      3.5400    -6.8200    23.6490 C.ar  1 Q101  -0.1060 
 14 C22      1.6460    -5.6180    22.8580 C.ar  1 Q101   0.1210 
 15 C24      3.2460    -6.4450    24.9440 C.ar  1 Q101  -0.0920 
 16 C26      1.3200    -5.2230    24.1450 C.ar  1 Q101  -0.1400 
 17 C27      2.1420    -5.6440    25.1910 C.ar  1 Q101  -0.1150 
 18 C28      1.8880    -5.3030    26.6220 C.2   1 Q101   0.6760 
 19 C50      3.4300    -5.9530    20.2680 C.2   1 Q101   0.6950 
 20 F1       0.8740    -5.2280    21.8310 F     1 Q101  -0.1400 
 21 O1       4.2850    -5.4550    16.3320 O.2   1 Q101  -0.5930 
 22 CL1     12.0840    -2.9260    14.8230 Cl    1 Q101  -0.0550 
 23 C1      10.4730    -3.5200    14.5970 C.2   1 Q101   0.0330 
 24 C2       9.7300    -3.4440    13.4660 C.2   1 Q101  -0.1460 
 25 S2       9.6740    -4.3040    15.9020 S.3   1 Q101   0.0240 
 26 C3       8.4730    -4.0260    13.6470 C.2   1 Q101  -0.1130 
 27 C4       8.2680    -4.5430    14.9210 C.2   1 Q101  -0.0920 
 28 C5       7.0290    -5.2000    15.3540 C.2   1 Q101   0.0810 
 29 C6       6.8390    -5.8500    16.5010 C.2   1 Q101  -0.4200 
 30 O2       5.1100    -7.8010    16.5810 O.2   1 Q101  -0.5930 
 31 H142     3.4130    -8.8660    21.5720 H     1 Q101   0.0600 
 32 H141     1.9350    -8.4700    20.6390 H     1 Q101   0.0600 
 33 H132     3.3660    -8.9150    18.7780 H     1 Q101   0.0720 
 34 H131     4.8110    -8.5320    19.7190 H     1 Q101   0.0720 
 35 H83      4.7480    -5.5120    27.7120 H     1 Q101   0.0490 
 36 H82      3.9340    -4.8560    29.1670 H     1 Q101   0.0490 
 37 H81      3.4150    -6.4130    28.4920 H     1 Q101   0.0490 
 38 H73      1.9300    -2.8840    27.7600 H     1 Q101   0.0490 
 39 H72      3.7160    -2.8880    27.9200 H     1 Q101   0.0490 
 40 H71      2.9480    -2.9280    26.3070 H     1 Q101   0.0490 
 41 H6       7.6170    -6.0720    17.2170 H     1 Q101   0.1940 
 42 H5       6.2020    -5.0710    14.6570 H     1 Q101   0.1560 
 43 H3       7.7250    -4.0880    12.8620 H     1 Q101   0.1600 
 44 H26      0.4540    -4.5980    24.3200 H     1 Q101   0.1600 
 45 H24      3.8590    -6.8090    25.7580 H     1 Q101   0.1630 
 46 H21      4.4010    -7.4610    23.4750 H     1 Q101   0.1530 
 47 H2      10.0610    -3.0000    12.5370 H     1 Q101   0.1720 
 48 H12      2.9130    -6.6420    18.3320 H     1 Q101   0.0910 
 49 H1       5.5060    -5.5860    18.9520 H     1 Q101   0.4670 
@<TRIPOS>BOND
  1   1   2  am  
  2   1   9  1   
  3   1  49  1   
  4   2  21  2   
  5   2  29  1   
  6   2  30  2   
  7   3  11  1   
  8   3  12  1   
  9   3  19  am  
 10   4   7  1   
 11   4   8  1   
 12   4  18  am  
 13   5  19  2   
 14   6  18  2   
 15   7  38  1   
 16   7  39  1   
 17   7  40  1   
 18   8  35  1   
 19   8  36  1   
 20   8  37  1   
 21   9  10  1   
 22   9  19  1   
 23   9  48  1   
 24  10  11  1   
 25  10  33  1   
 26  10  34  1   
 27  11  31  1   
 28  11  32  1   
 29  12  13  ar  
 30  12  14  ar  
 31  13  15  ar  
 32  13  46  1   
 33  14  16  ar  
 34  14  20  1   
 35  15  17  ar  
 36  15  45  1   
 37  16  17  ar  
 38  16  44  1   
 39  17  18  1   
 40  22  23  1   
 41  23  24  2   
 42  23  25  1   
 43  24  26  1   
 44  24  47  1   
 45  25  27  1   
 46  26  27  2   
 47  26  43  1   
 48  27  28  1   
 49  28  29  2   
 50  28  42  1   
 51  29  41  1   
@<TRIPOS>SUBSTRUCTURE
  1 Q101  19 GROUP 4 **** **** 0

# MOE 2011.10 (io_trps.svl 2011.10)

@<TRIPOS>MOLECULE
FXA101_183
49 51 1 0 0 
SMALL
USER_CHARGES


@<TRIPOS>ATOM
  1 N1       5.8270     8.4850    22.0360 N.am  1 Q101  -0.8960 
  2 S1       5.3100     9.5860    23.0990 S.o2  1 Q101   1.3220 
  3 N2       6.1450     5.1820    21.1140 N.am  1 Q101  -0.3970 
  4 N3       9.3960     1.1360    17.1460 N.am  1 Q101  -0.4840 
  5 O3       7.8970     6.6780    21.0980 O.2   1 Q101  -0.6040 
  6 O4       7.3010     1.0940    16.4060 O.2   1 Q101  -0.6060 
  7 C7      10.3070     1.8520    18.0530 C.3   1 Q101   0.0840 
  8 C8       9.9710     0.1040    16.2680 C.3   1 Q101   0.0840 
  9 C12      5.8850     7.0940    22.4220 C.3   1 Q101   0.1690 
 10 C13      4.5350     6.3760    22.3300 C.3   1 Q101  -0.1080 
 11 C14      4.8640     4.9930    21.7790 C.3   1 Q101   0.1020 
 12 C15      6.6560     4.2510    20.1550 C.ar  1 Q101   0.0330 
 13 C21      6.8320     4.6090    18.8260 C.ar  1 Q101  -0.1060 
 14 C22      6.9660     2.9500    20.5250 C.ar  1 Q101   0.1210 
 15 C24      7.3100     3.7070    17.8970 C.ar  1 Q101  -0.0920 
 16 C26      7.4470     2.0170    19.6200 C.ar  1 Q101  -0.1400 
 17 C27      7.6220     2.4150    18.2940 C.ar  1 Q101  -0.1150 
 18 C28      8.1130     1.5020    17.2210 C.2   1 Q101   0.6760 
 19 C50      6.7880     6.3220    21.4690 C.2   1 Q101   0.6950 
 20 F1       6.7890     2.5950    21.8080 F     1 Q101  -0.1400 
 21 O1       5.0780    10.7560    22.3100 O.2   1 Q101  -0.5930 
 22 CL1      0.9970     9.3760    18.1600 Cl    1 Q101  -0.0550 
 23 C1       1.3840     9.8650    19.7760 C.2   1 Q101   0.0330 
 24 C2       1.1620    11.0800    20.3310 C.2   1 Q101  -0.1460 
 25 S2       2.1260     8.7380    20.8400 S.3   1 Q101   0.0240 
 26 C3       1.6060    11.1190    21.6560 C.2   1 Q101  -0.1130 
 27 C4       2.1650     9.9260    22.0990 C.2   1 Q101  -0.0920 
 28 C5       2.7040     9.7210    23.4480 C.2   1 Q101   0.0810 
 29 C6       3.8020     9.0350    23.7640 C.2   1 Q101  -0.4200 
 30 O2       6.3340     9.5550    24.1050 O.2   1 Q101  -0.5930 
 31 H142     4.1080     4.6350    21.0740 H     1 Q101   0.0600 
 32 H141     4.9920     4.2650    22.5860 H     1 Q101   0.0600 
 33 H132     4.0200     6.3300    23.2940 H     1 Q101   0.0720 
 34 H131     3.8740     6.9010    21.6290 H     1 Q101   0.0720 
 35 H83     10.3960     0.5830    15.3890 H     1 Q101   0.0490 
 36 H82     10.7440    -0.4410    16.8160 H     1 Q101   0.0490 
 37 H81      9.1850    -0.5910    15.9810 H     1 Q101   0.0490 
 38 H73     10.0280     1.6150    19.0830 H     1 Q101   0.0490 
 39 H72     11.3440     1.5610    17.8660 H     1 Q101   0.0490 
 40 H71     10.1980     2.9320    17.9060 H     1 Q101   0.0490 
 41 H6       3.8200     8.1710    24.4130 H     1 Q101   0.1940 
 42 H5       2.1450    10.2420    24.2250 H     1 Q101   0.1560 
 43 H3       1.5100    11.9930    22.2920 H     1 Q101   0.1600 
 44 H26      7.6860     1.0140    19.9470 H     1 Q101   0.1600 
 45 H24      7.4020     4.0050    16.8610 H     1 Q101   0.1630 
 46 H21      6.5790     5.6130    18.4940 H     1 Q101   0.1530 
 47 H2       0.6950    11.9150    19.8270 H     1 Q101   0.1720 
 48 H12      6.2920     6.9520    23.4300 H     1 Q101   0.0910 
 49 H1       6.5160     8.8010    21.3490 H     1 Q101   0.4670 
@<TRIPOS>BOND
  1   1   2  am  
  2   1   9  1   
  3   1  49  1   
  4   2  21  2   
  5   2  29  1   
  6   2  30  2   
  7   3  11  1   
  8   3  12  1   
  9   3  19  am  
 10   4   7  1   
 11   4   8  1   
 12   4  18  am  
 13   5  19  2   
 14   6  18  2   
 15   7  38  1   
 16   7  39  1   
 17   7  40  1   
 18   8  35  1   
 19   8  36  1   
 20   8  37  1   
 21   9  10  1   
 22   9  19  1   
 23   9  48  1   
 24  10  11  1   
 25  10  33  1   
 26  10  34  1   
 27  11  31  1   
 28  11  32  1   
 29  12  13  ar  
 30  12  14  ar  
 31  13  15  ar  
 32  13  46  1   
 33  14  16  ar  
 34  14  20  1   
 35  15  17  ar  
 36  15  45  1   
 37  16  17  ar  
 38  16  44  1   
 39  17  18  1   
 40  22  23  1   
 41  23  24  2   
 42  23  25  1   
 43  24  26  1   
 44  24  47  1   
 45  25  27  1   
 46  26  27  2   
 47  26  43  1   
 48  27  28  1   
 49  28  29  2   
 50  28  42  1   
 51  29  41  1   
@<TRIPOS>SUBSTRUCTURE
  1 Q101   3 GROUP 4 **** **** 0

# MOE 2011.10 (io_trps.svl 2011.10)

@<TRIPOS>MOLECULE
FXA101_184
49 51 1 0 0 
SMALL
USER_CHARGES


@<TRIPOS>ATOM
  1 N1       6.1940     7.6600    23.0380 N.am  1 Q101  -0.8960 
  2 S1       6.2160     8.8270    24.1540 S.o2  1 Q101   1.3220 
  3 N2       6.8370     6.7460    19.7800 N.am  1 Q101  -0.3970 
  4 N3       6.2260     1.8450    15.4840 N.am  1 Q101  -0.4840 
  5 O3       5.0160     5.9930    20.9740 O.2   1 Q101  -0.6040 
  6 O4       8.4140     2.1380    15.7380 O.2   1 Q101  -0.6060 
  7 C7       6.5470     0.6280    14.7220 C.3   1 Q101   0.0840 
  8 C8       4.8100     2.2340    15.5940 C.3   1 Q101   0.0840 
  9 C12      6.2200     8.0140    21.6370 C.3   1 Q101   0.1690 
 10 C13      7.5930     8.4910    21.1510 C.3   1 Q101  -0.1080 
 11 C14      7.7520     7.8780    19.7640 C.3   1 Q101   0.1020 
 12 C15      6.9210     5.6780    18.8310 C.ar  1 Q101   0.0330 
 13 C21      7.6630     4.5360    19.0950 C.ar  1 Q101  -0.1060 
 14 C22      6.2820     5.7690    17.6030 C.ar  1 Q101   0.1210 
 15 C24      7.7580     3.5120    18.1740 C.ar  1 Q101  -0.0920 
 16 C26      6.3560     4.7630    16.6530 C.ar  1 Q101  -0.1400 
 17 C27      7.1010     3.6240    16.9570 C.ar  1 Q101  -0.1150 
 18 C28      7.2750     2.4800    16.0140 C.2   1 Q101   0.6760 
 19 C50      5.9230     6.7880    20.7810 C.2   1 Q101   0.6950 
 20 F1       5.5700     6.8770    17.3370 F     1 Q101  -0.1400 
 21 O1       4.9310     8.7420    24.7770 O.2   1 Q101  -0.5930 
 22 CL1     13.8860     7.2770    26.2770 Cl    1 Q101  -0.0550 
 23 C1      12.1780     7.5560    26.2380 C.2   1 Q101   0.0330 
 24 C2      11.2590     7.0950    27.1210 C.2   1 Q101  -0.1460 
 25 S2      11.5110     8.5150    24.9760 S.3   1 Q101   0.0240 
 26 C3       9.9720     7.5160    26.7760 C.2   1 Q101  -0.1130 
 27 C4       9.9220     8.2970    25.6270 C.2   1 Q101  -0.0920 
 28 C5       8.6860     8.8540    25.0630 C.2   1 Q101   0.0810 
 29 C6       7.4450     8.4420    25.3210 C.2   1 Q101  -0.4200 
 30 O2       6.6010     9.9820    23.3930 O.2   1 Q101  -0.5930 
 31 H142     8.7770     7.5480    19.5710 H     1 Q101   0.0600 
 32 H141     7.4330     8.5760    18.9840 H     1 Q101   0.0600 
 33 H132     7.6740     9.5820    21.1380 H     1 Q101   0.0720 
 34 H131     8.3810     8.1110    21.8120 H     1 Q101   0.0720 
 35 H83      4.5210     2.7740    14.6950 H     1 Q101   0.0490 
 36 H82      4.2010     1.3330    15.7100 H     1 Q101   0.0490 
 37 H81      4.6850     2.8600    16.4730 H     1 Q101   0.0490 
 38 H73      6.9780    -0.1070    15.4070 H     1 Q101   0.0490 
 39 H72      5.6500     0.2220    14.2480 H     1 Q101   0.0490 
 40 H71      7.2920     0.8610    13.9540 H     1 Q101   0.0490 
 41 H6       7.1550     7.8770    26.1950 H     1 Q101   0.1940 
 42 H5       8.8520     9.7150    24.4170 H     1 Q101   0.1560 
 43 H3       9.0880     7.2720    27.3580 H     1 Q101   0.1600 
 44 H26      5.8370     4.8660    15.7090 H     1 Q101   0.1600 
 45 H24      8.3730     2.6500    18.3940 H     1 Q101   0.1630 
 46 H21      8.1960     4.4380    20.0380 H     1 Q101   0.1530 
 47 H2      11.4830     6.4880    27.9870 H     1 Q101   0.1720 
 48 H12      5.4710     8.7700    21.3780 H     1 Q101   0.0910 
 49 H1       5.7010     6.7990    23.2860 H     1 Q101   0.4670 
@<TRIPOS>BOND
  1   1   2  am  
  2   1   9  1   
  3   1  49  1   
  4   2  21  2   
  5   2  29  1   
  6   2  30  2   
  7   3  11  1   
  8   3  12  1   
  9   3  19  am  
 10   4   7  1   
 11   4   8  1   
 12   4  18  am  
 13   5  19  2   
 14   6  18  2   
 15   7  38  1   
 16   7  39  1   
 17   7  40  1   
 18   8  35  1   
 19   8  36  1   
 20   8  37  1   
 21   9  10  1   
 22   9  19  1   
 23   9  48  1   
 24  10  11  1   
 25  10  33  1   
 26  10  34  1   
 27  11  31  1   
 28  11  32  1   
 29  12  13  ar  
 30  12  14  ar  
 31  13  15  ar  
 32  13  46  1   
 33  14  16  ar  
 34  14  20  1   
 35  15  17  ar  
 36  15  45  1   
 37  16  17  ar  
 38  16  44  1   
 39  17  18  1   
 40  22  23  1   
 41  23  24  2   
 42  23  25  1   
 43  24  26  1   
 44  24  47  1   
 45  25  27  1   
 46  26  27  2   
 47  26  43  1   
 48  27  28  1   
 49  28  29  2   
 50  28  42  1   
 51  29  41  1   
@<TRIPOS>SUBSTRUCTURE
  1 Q101   3 GROUP 4 **** **** 0

# MOE 2011.10 (io_trps.svl 2011.10)

@<TRIPOS>MOLECULE
FXA101_185
49 51 1 0 0 
SMALL
USER_CHARGES


@<TRIPOS>ATOM
  1 N1       5.3800     5.6500    16.6060 N.am  1 Q101  -0.8960 
  2 S1       4.8610     4.5910    15.5020 S.o2  1 Q101   1.3220 
  3 N2       6.5490     6.1180    19.8120 N.am  1 Q101  -0.3970 
  4 N3       9.7110     9.2380    24.5500 N.am  1 Q101  -0.4840 
  5 O3       5.2240     7.6470    18.7070 O.2   1 Q101  -0.6040 
  6 O4       8.6670    10.8850    23.4830 O.2   1 Q101  -0.6060 
  7 C7      11.1570     9.2740    24.2770 C.3   1 Q101   0.0840 
  8 C8       9.2700     8.7200    25.8550 C.3   1 Q101   0.0840 
  9 C12      5.3140     5.3060    18.0080 C.3   1 Q101   0.1690 
 10 C13      6.3310     4.2400    18.4260 C.3   1 Q101  -0.1080 
 11 C14      6.8320     4.6910    19.7940 C.3   1 Q101   0.1020 
 12 C15      7.1700     7.0120    20.7410 C.ar  1 Q101   0.0330 
 13 C21      6.8960     6.9450    22.0990 C.ar  1 Q101  -0.1060 
 14 C22      8.0460     7.9940    20.3020 C.ar  1 Q101   0.1210 
 15 C24      7.4820     7.8170    22.9940 C.ar  1 Q101  -0.0920 
 16 C26      8.6520     8.8880    21.1700 C.ar  1 Q101  -0.1400 
 17 C27      8.3620     8.7830    22.5310 C.ar  1 Q101  -0.1150 
 18 C28      8.9330     9.6960    23.5650 C.2   1 Q101   0.6760 
 19 C50      5.6670     6.5180    18.8620 C.2   1 Q101   0.6950 
 20 F1       8.3080     8.0710    18.9870 F     1 Q101  -0.1400 
 21 O1       3.6890     4.0160    16.0880 O.2   1 Q101  -0.5930 
 22 CL1      5.5460     0.0820    10.4080 Cl    1 Q101  -0.0550 
 23 C1       5.0500     1.4120    11.3990 C.2   1 Q101   0.0330 
 24 C2       4.0930     1.3980    12.3590 C.2   1 Q101  -0.1460 
 25 S2       5.8140     2.9400    11.2000 S.3   1 Q101   0.0240 
 26 C3       3.9570     2.6550    12.9550 C.2   1 Q101  -0.1130 
 27 C4       4.8170     3.6190    12.4420 C.2   1 Q101  -0.0920 
 28 C5       4.8600     5.0120    12.9030 C.2   1 Q101   0.0810 
 29 C6       4.4140     5.4720    14.0710 C.2   1 Q101  -0.4200 
 30 O2       6.0340     3.8020    15.2500 O.2   1 Q101  -0.5930 
 31 H142     7.9020     4.5040    19.9270 H     1 Q101   0.0600 
 32 H141     6.2680     4.2110    20.6000 H     1 Q101   0.0600 
 33 H132     5.8970     3.2360    18.4500 H     1 Q101   0.0720 
 34 H131     7.1690     4.2180    17.7180 H     1 Q101   0.0720 
 35 H83      9.2430     7.6340    25.8140 H     1 Q101   0.0490 
 36 H82      9.9690     9.0550    26.6270 H     1 Q101   0.0490 
 37 H81      8.2830     9.1190    26.0760 H     1 Q101   0.0490 
 38 H73     11.4630    10.3170    24.1670 H     1 Q101   0.0490 
 39 H72     11.7130     8.8000    25.0900 H     1 Q101   0.0490 
 40 H71     11.3670     8.7510    23.3380 H     1 Q101   0.0490 
 41 H6       3.8070     6.3570    14.1910 H     1 Q101   0.1940 
 42 H5       5.3600     5.6860    12.2070 H     1 Q101   0.1560 
 43 H3       3.2580     2.8610    13.7590 H     1 Q101   0.1600 
 44 H26      9.3370     9.6360    20.7920 H     1 Q101   0.1600 
 45 H24      7.2210     7.7630    24.0430 H     1 Q101   0.1630 
 46 H21      6.1970     6.2030    22.4780 H     1 Q101   0.1530 
 47 H2       3.5110     0.5320    12.6390 H     1 Q101   0.1720 
 48 H12      4.3140     4.9820    18.3170 H     1 Q101   0.0910 
 49 H1       5.2840     6.6410    16.3690 H     1 Q101   0.4670 
@<TRIPOS>BOND
  1   1   2  am  
  2   1   9  1   
  3   1  49  1   
  4   2  21  2   
  5   2  29  1   
  6   2  30  2   
  7   3  11  1   
  8   3  12  1   
  9   3  19  am  
 10   4   7  1   
 11   4   8  1   
 12   4  18  am  
 13   5  19  2   
 14   6  18  2   
 15   7  38  1   
 16   7  39  1   
 17   7  40  1   
 18   8  35  1   
 19   8  36  1   
 20   8  37  1   
 21   9  10  1   
 22   9  19  1   
 23   9  48  1   
 24  10  11  1   
 25  10  33  1   
 26  10  34  1   
 27  11  31  1   
 28  11  32  1   
 29  12  13  ar  
 30  12  14  ar  
 31  13  15  ar  
 32  13  46  1   
 33  14  16  ar  
 34  14  20  1   
 35  15  17  ar  
 36  15  45  1   
 37  16  17  ar  
 38  16  44  1   
 39  17  18  1   
 40  22  23  1   
 41  23  24  2   
 42  23  25  1   
 43  24  26  1   
 44  24  47  1   
 45  25  27  1   
 46  26  27  2   
 47  26  43  1   
 48  27  28  1   
 49  28  29  2   
 50  28  42  1   
 51  29  41  1   
@<TRIPOS>SUBSTRUCTURE
  1 Q101  19 GROUP 4 **** **** 0

# MOE 2011.10 (io_trps.svl 2011.10)

@<TRIPOS>MOLECULE
FXA101_186
49 51 1 0 0 
SMALL
USER_CHARGES


@<TRIPOS>ATOM
  1 N1       5.9780     8.5880    22.1970 N.am  1 Q101  -0.8960 
  2 S1       6.7210     9.6460    23.1650 S.o2  1 Q101   1.3220 
  3 N2       2.7670     7.7540    21.2690 N.am  1 Q101  -0.3970 
  4 N3      -3.0050     4.7680    21.6360 N.am  1 Q101  -0.4840 
  5 O3       3.3780     8.2300    23.4390 O.2   1 Q101  -0.6040 
  6 O4      -1.7350     3.6280    23.0600 O.2   1 Q101  -0.6060 
  7 C7      -2.9640     4.5480    20.1820 C.3   1 Q101   0.0840 
  8 C8      -4.2860     5.1810    22.2340 C.3   1 Q101   0.0840 
  9 C12      4.7430     8.9620    21.5480 C.3   1 Q101   0.1690 
 10 C13      4.6520     8.4990    20.0900 C.3   1 Q101  -0.1080 
 11 C14      3.2070     8.0450    19.9120 C.3   1 Q101   0.1020 
 12 C15      1.6080     6.9620    21.5470 C.ar  1 Q101   0.0330 
 13 C21      1.5030     5.6550    21.0910 C.ar  1 Q101  -0.1060 
 14 C22      0.5420     7.4900    22.2600 C.ar  1 Q101   0.1210 
 15 C24      0.3790     4.8950    21.3440 C.ar  1 Q101  -0.0920 
 16 C26     -0.6020     6.7580    22.5330 C.ar  1 Q101  -0.1400 
 17 C27     -0.6690     5.4440    22.0680 C.ar  1 Q101  -0.1150 
 18 C28     -1.8520     4.5580    22.2780 C.2   1 Q101   0.6760 
 19 C50      3.5630     8.2820    22.2320 C.2   1 Q101   0.6950 
 20 F1       0.6340     8.7570    22.6960 F     1 Q101  -0.1400 
 21 O1       6.0830     9.4710    24.4340 O.2   1 Q101  -0.5930 
 22 CL1     13.4160     7.1920    27.1190 Cl    1 Q101  -0.0550 
 23 C1      12.2280     7.7110    25.9710 C.2   1 Q101   0.0330 
 24 C2      12.4590     8.2460    24.7480 C.2   1 Q101  -0.1460 
 25 S2      10.5600     7.5560    26.3600 S.3   1 Q101   0.0240 
 26 C3      11.2610     8.5510    24.0960 C.2   1 Q101  -0.1130 
 27 C4      10.1230     8.2440    24.8320 C.2   1 Q101  -0.0920 
 28 C5       8.7520     8.4750    24.3630 C.2   1 Q101   0.0810 
 29 C6       8.3920     9.1860    23.2940 C.2   1 Q101  -0.4200 
 30 O2       6.6020    10.8760    22.4340 O.2   1 Q101  -0.5930 
 31 H142     3.1250     7.1570    19.2780 H     1 Q101   0.0600 
 32 H141     2.5860     8.8500    19.5070 H     1 Q101   0.0600 
 33 H132     4.9320     9.2860    19.3840 H     1 Q101   0.0720 
 34 H131     5.3260     7.6500    19.9200 H     1 Q101   0.0720 
 35 H83     -4.4020     6.2560    22.1130 H     1 Q101   0.0490 
 36 H82     -5.1010     4.6510    21.7320 H     1 Q101   0.0490 
 37 H81     -4.2860     4.9120    23.2870 H     1 Q101   0.0490 
 38 H73     -2.7510     3.4910    19.9970 H     1 Q101   0.0490 
 39 H72     -3.9160     4.8270    19.7240 H     1 Q101   0.0490 
 40 H71     -2.1580     5.1440    19.7430 H     1 Q101   0.0490 
 41 H6       9.0670     9.5050    22.5140 H     1 Q101   0.1940 
 42 H5       7.9970     7.9520    24.9490 H     1 Q101   0.1560 
 43 H3      11.2170     8.9740    23.0970 H     1 Q101   0.1600 
 44 H26     -1.4100     7.2010    23.0990 H     1 Q101   0.1600 
 45 H24      0.3110     3.8920    20.9450 H     1 Q101   0.1630 
 46 H21      2.3090     5.2150    20.5100 H     1 Q101   0.1530 
 47 H2      13.4380     8.4110    24.3200 H     1 Q101   0.1720 
 48 H12      4.5530    10.0410    21.5880 H     1 Q101   0.0910 
 49 H1       6.0970     7.5980    22.4260 H     1 Q101   0.4670 
@<TRIPOS>BOND
  1   1   2  am  
  2   1   9  1   
  3   1  49  1   
  4   2  21  2   
  5   2  29  1   
  6   2  30  2   
  7   3  11  1   
  8   3  12  1   
  9   3  19  am  
 10   4   7  1   
 11   4   8  1   
 12   4  18  am  
 13   5  19  2   
 14   6  18  2   
 15   7  38  1   
 16   7  39  1   
 17   7  40  1   
 18   8  35  1   
 19   8  36  1   
 20   8  37  1   
 21   9  10  1   
 22   9  19  1   
 23   9  48  1   
 24  10  11  1   
 25  10  33  1   
 26  10  34  1   
 27  11  31  1   
 28  11  32  1   
 29  12  13  ar  
 30  12  14  ar  
 31  13  15  ar  
 32  13  46  1   
 33  14  16  ar  
 34  14  20  1   
 35  15  17  ar  
 36  15  45  1   
 37  16  17  ar  
 38  16  44  1   
 39  17  18  1   
 40  22  23  1   
 41  23  24  2   
 42  23  25  1   
 43  24  26  1   
 44  24  47  1   
 45  25  27  1   
 46  26  27  2   
 47  26  43  1   
 48  27  28  1   
 49  28  29  2   
 50  28  42  1   
 51  29  41  1   
@<TRIPOS>SUBSTRUCTURE
  1 Q101  19 GROUP 4 **** **** 0

# MOE 2011.10 (io_trps.svl 2011.10)

@<TRIPOS>MOLECULE
FXA101_187
49 51 1 0 0 
SMALL
USER_CHARGES


@<TRIPOS>ATOM
  1 N1       5.8840     7.8780    22.9680 N.am  1 Q101  -0.8960 
  2 S1       6.4190     8.7030    24.2500 S.o2  1 Q101   1.3220 
  3 N2       3.4740     7.2580    20.5860 N.am  1 Q101  -0.3970 
  4 N3       0.9130     2.1820    17.4720 N.am  1 Q101  -0.4840 
  5 O3       3.9370     5.8220    22.3290 O.2   1 Q101  -0.6040 
  6 O4       0.8280     3.7770    15.9270 O.2   1 Q101  -0.6060 
  7 C7      -0.4880     1.7430    17.3750 C.3   1 Q101   0.0840 
  8 C8       1.8980     1.2260    18.0070 C.3   1 Q101   0.0840 
  9 C12      4.5810     8.1780    22.4210 C.3   1 Q101   0.1690 
 10 C13      4.6180     9.1880    21.2690 C.3   1 Q101  -0.1080 
 11 C14      3.5930     8.6720    20.2650 C.3   1 Q101   0.1020 
 12 C15      2.9040     6.3090    19.6800 C.ar  1 Q101   0.0330 
 13 C21      1.5720     5.9320    19.7750 C.ar  1 Q101  -0.1060 
 14 C22      3.6790     5.7170    18.6940 C.ar  1 Q101   0.1210 
 15 C24      1.0260     5.0040    18.9110 C.ar  1 Q101  -0.0920 
 16 C26      3.1660     4.7820    17.8090 C.ar  1 Q101  -0.1400 
 17 C27      1.8200     4.4340    17.9270 C.ar  1 Q101  -0.1150 
 18 C28      1.1520     3.4270    17.0510 C.2   1 Q101   0.6760 
 19 C50      3.9700     6.9260    21.8050 C.2   1 Q101   0.6950 
 20 F1       4.9720     6.0700    18.6030 F     1 Q101  -0.1400 
 21 O1       5.7020     8.1430    25.3540 O.2   1 Q101  -0.5930 
 22 CL1     14.0440     7.2810    26.1560 Cl    1 Q101  -0.0550 
 23 C1      12.3320     7.4330    26.3740 C.2   1 Q101   0.0330 
 24 C2      11.6060     6.9960    27.4310 C.2   1 Q101  -0.1460 
 25 S2      11.3970     8.2140    25.1610 S.3   1 Q101   0.0240 
 26 C3      10.2490     7.2890    27.2670 C.2   1 Q101  -0.1130 
 27 C4       9.9540     7.9490    26.0800 C.2   1 Q101  -0.0920 
 28 C5       8.6020     8.3590    25.6810 C.2   1 Q101   0.0810 
 29 C6       8.1150     8.3740    24.4400 C.2   1 Q101  -0.4200 
 30 O2       6.2230    10.0680    23.8480 O.2   1 Q101  -0.5930 
 31 H142     3.9200     8.8100    19.2290 H     1 Q101   0.0600 
 32 H141     2.6180     9.1490    20.4120 H     1 Q101   0.0600 
 33 H132     4.4010    10.2070    21.6010 H     1 Q101   0.0720 
 34 H131     5.6120     9.1970    20.8060 H     1 Q101   0.0720 
 35 H83      1.8610     1.2510    19.0930 H     1 Q101   0.0490 
 36 H82      1.6570     0.2240    17.6400 H     1 Q101   0.0490 
 37 H81      2.8860     1.5040    17.6510 H     1 Q101   0.0490 
 38 H73     -0.7710     1.7200    16.3190 H     1 Q101   0.0490 
 39 H72     -0.6140     0.7540    17.8220 H     1 Q101   0.0490 
 40 H71     -1.1350     2.4610    17.8890 H     1 Q101   0.0490 
 41 H6       8.7020     8.2080    23.5490 H     1 Q101   0.1940 
 42 H5       7.9600     8.6190    26.5220 H     1 Q101   0.1560 
 43 H3       9.4920     7.0400    28.0040 H     1 Q101   0.1600 
 44 H26      3.7990     4.3460    17.0480 H     1 Q101   0.1600 
 45 H24     -0.0060     4.7040    19.0330 H     1 Q101   0.1630 
 46 H21      0.9400     6.3580    20.5490 H     1 Q101   0.1530 
 47 H2      12.0140     6.4940    28.2970 H     1 Q101   0.1720 
 48 H12      3.8760     8.5340    23.1810 H     1 Q101   0.0910 
 49 H1       6.2110     6.9130    22.8770 H     1 Q101   0.4670 
@<TRIPOS>BOND
  1   1   2  am  
  2   1   9  1   
  3   1  49  1   
  4   2  21  2   
  5   2  29  1   
  6   2  30  2   
  7   3  11  1   
  8   3  12  1   
  9   3  19  am  
 10   4   7  1   
 11   4   8  1   
 12   4  18  am  
 13   5  19  2   
 14   6  18  2   
 15   7  38  1   
 16   7  39  1   
 17   7  40  1   
 18   8  35  1   
 19   8  36  1   
 20   8  37  1   
 21   9  10  1   
 22   9  19  1   
 23   9  48  1   
 24  10  11  1   
 25  10  33  1   
 26  10  34  1   
 27  11  31  1   
 28  11  32  1   
 29  12  13  ar  
 30  12  14  ar  
 31  13  15  ar  
 32  13  46  1   
 33  14  16  ar  
 34  14  20  1   
 35  15  17  ar  
 36  15  45  1   
 37  16  17  ar  
 38  16  44  1   
 39  17  18  1   
 40  22  23  1   
 41  23  24  2   
 42  23  25  1   
 43  24  26  1   
 44  24  47  1   
 45  25  27  1   
 46  26  27  2   
 47  26  43  1   
 48  27  28  1   
 49  28  29  2   
 50  28  42  1   
 51  29  41  1   
@<TRIPOS>SUBSTRUCTURE
  1 Q101  19 GROUP 4 **** **** 0

# MOE 2011.10 (io_trps.svl 2011.10)

@<TRIPOS>MOLECULE
FXA101_188
49 51 1 0 0 
SMALL
USER_CHARGES


@<TRIPOS>ATOM
  1 N1       5.9570     8.0490    22.9390 N.am  1 Q101  -0.8960 
  2 S1       6.4960     8.7820    24.2740 S.o2  1 Q101   1.3220 
  3 N2       3.2610     6.1710    21.9040 N.am  1 Q101  -0.3970 
  4 N3       1.5220    -0.0820    22.0920 N.am  1 Q101  -0.4840 
  5 O3       4.3480     5.8350    23.9080 O.2   1 Q101  -0.6040 
  6 O4       0.0740     0.7890    20.6480 O.2   1 Q101  -0.6060 
  7 C7       2.9240    -0.4330    21.8170 C.3   1 Q101   0.0840 
  8 C8       0.8040    -0.8670    23.1090 C.3   1 Q101   0.0840 
  9 C12      4.5350     7.9540    22.7030 C.3   1 Q101   0.1690 
 10 C13      4.1330     8.2480    21.2540 C.3   1 Q101  -0.1080 
 11 C14      3.0370     7.2370    20.9380 C.3   1 Q101   0.1020 
 12 C15      2.7040     4.8630    21.7460 C.ar  1 Q101   0.0330 
 13 C21      1.6820     4.4110    22.5690 C.ar  1 Q101  -0.1060 
 14 C22      3.1920     3.9960    20.7790 C.ar  1 Q101   0.1210 
 15 C24      1.1550     3.1430    22.4290 C.ar  1 Q101  -0.0920 
 16 C26      2.6880     2.7160    20.6100 C.ar  1 Q101  -0.1400 
 17 C27      1.6540     2.3000    21.4480 C.ar  1 Q101  -0.1150 
 18 C28      1.0390     0.9400    21.3800 C.2   1 Q101   0.6760 
 19 C50      4.0570     6.5260    22.9430 C.2   1 Q101   0.6950 
 20 F1       4.1880     4.4240    19.9860 F     1 Q101  -0.1400 
 21 O1       5.7780     8.1500    25.3380 O.2   1 Q101  -0.5930 
 22 CL1     14.1480     7.3570    25.9610 Cl    1 Q101  -0.0550 
 23 C1      12.4430     7.4600    26.2460 C.2   1 Q101   0.0330 
 24 C2      11.7790     7.0590    27.3560 C.2   1 Q101  -0.1460 
 25 S2      11.4280     8.1390    25.0350 S.3   1 Q101   0.0240 
 26 C3      10.4060     7.2930    27.2370 C.2   1 Q101  -0.1130 
 27 C4      10.0360     7.8750    26.0300 C.2   1 Q101  -0.0920 
 28 C5       8.6540     8.2140    25.6700 C.2   1 Q101   0.0810 
 29 C6       8.1910     8.4350    24.4400 C.2   1 Q101  -0.4200 
 30 O2       6.3040    10.1720    23.9660 O.2   1 Q101  -0.5930 
 31 H142     3.1050     6.8560    19.9150 H     1 Q101   0.0600 
 32 H141     2.0430     7.6630    21.1110 H     1 Q101   0.0600 
 33 H132     3.8020     9.2820    21.1160 H     1 Q101   0.0720 
 34 H131     4.9870     8.0850    20.5840 H     1 Q101   0.0720 
 35 H83      0.4370    -1.7840    22.6540 H     1 Q101   0.0490 
 36 H82      1.4870    -1.0960    23.9320 H     1 Q101   0.0490 
 37 H81     -0.0230    -0.2740    23.4920 H     1 Q101   0.0490 
 38 H73      3.5560     0.4100    22.1080 H     1 Q101   0.0490 
 39 H72      3.2120    -1.3300    22.3700 H     1 Q101   0.0490 
 40 H71      3.0550    -0.6070    20.7430 H     1 Q101   0.0490 
 41 H6       8.7960     8.4270    23.5450 H     1 Q101   0.1940 
 42 H5       7.9720     8.2230    26.5190 H     1 Q101   0.1560 
 43 H3       9.6910     7.0600    28.0200 H     1 Q101   0.1600 
 44 H26      3.0890     2.0710    19.8390 H     1 Q101   0.1600 
 45 H24      0.3830     2.8070    23.1080 H     1 Q101   0.1630 
 46 H21      1.2890     5.0540    23.3530 H     1 Q101   0.1530 
 47 H2      12.2420     6.6200    28.2300 H     1 Q101   0.1720 
 48 H12      3.9520     8.5990    23.3700 H     1 Q101   0.0910 
 49 H1       6.5370     7.2920    22.5680 H     1 Q101   0.4670 
@<TRIPOS>BOND
  1   1   2  am  
  2   1   9  1   
  3   1  49  1   
  4   2  21  2   
  5   2  29  1   
  6   2  30  2   
  7   3  11  1   
  8   3  12  1   
  9   3  19  am  
 10   4   7  1   
 11   4   8  1   
 12   4  18  am  
 13   5  19  2   
 14   6  18  2   
 15   7  38  1   
 16   7  39  1   
 17   7  40  1   
 18   8  35  1   
 19   8  36  1   
 20   8  37  1   
 21   9  10  1   
 22   9  19  1   
 23   9  48  1   
 24  10  11  1   
 25  10  33  1   
 26  10  34  1   
 27  11  31  1   
 28  11  32  1   
 29  12  13  ar  
 30  12  14  ar  
 31  13  15  ar  
 32  13  46  1   
 33  14  16  ar  
 34  14  20  1   
 35  15  17  ar  
 36  15  45  1   
 37  16  17  ar  
 38  16  44  1   
 39  17  18  1   
 40  22  23  1   
 41  23  24  2   
 42  23  25  1   
 43  24  26  1   
 44  24  47  1   
 45  25  27  1   
 46  26  27  2   
 47  26  43  1   
 48  27  28  1   
 49  28  29  2   
 50  28  42  1   
 51  29  41  1   
@<TRIPOS>SUBSTRUCTURE
  1 Q101   5 GROUP 4 **** **** 0

# MOE 2011.10 (io_trps.svl 2011.10)

@<TRIPOS>MOLECULE
FXA101_189
49 51 1 0 0 
SMALL
USER_CHARGES


@<TRIPOS>ATOM
  1 N1       5.0090     8.8540    21.2460 N.am  1 Q101  -0.8960 
  2 S1       6.0140     9.8350    22.0440 S.o2  1 Q101   1.3220 
  3 N2       1.5780     8.5560    21.1830 N.am  1 Q101  -0.3970 
  4 N3      -3.1480     6.8400    25.2610 N.am  1 Q101  -0.4840 
  5 O3       2.7570     9.2640    23.0320 O.2   1 Q101  -0.6040 
  6 O4      -4.0160     6.2780    23.2940 O.2   1 Q101  -0.6060 
  7 C7      -4.4110     7.3920    25.7770 C.3   1 Q101   0.0840 
  8 C8      -2.1110     6.4670    26.2370 C.3   1 Q101   0.0840 
  9 C12      3.7330     9.3570    20.7930 C.3   1 Q101   0.1690 
 10 C13      3.2240     8.6770    19.5180 C.3   1 Q101  -0.1080 
 11 C14      1.7250     8.5080    19.7350 C.3   1 Q101   0.1020 
 12 C15      0.4060     8.0810    21.8520 C.ar  1 Q101   0.0330 
 13 C21     -0.4400     8.9490    22.5280 C.ar  1 Q101  -0.1060 
 14 C22      0.0960     6.7290    21.8650 C.ar  1 Q101   0.1210 
 15 C24     -1.5620     8.4910    23.1870 C.ar  1 Q101  -0.0920 
 16 C26     -1.0220     6.2320    22.5170 C.ar  1 Q101  -0.1400 
 17 C27     -1.8550     7.1350    23.1770 C.ar  1 Q101  -0.1150 
 18 C28     -3.0760     6.7250    23.9320 C.2   1 Q101   0.6760 
 19 C50      2.6550     9.0660    21.8300 C.2   1 Q101   0.6950 
 20 F1       0.9150     5.8820    21.2210 F     1 Q101  -0.1400 
 21 O1       5.1530    10.6420    22.8510 O.2   1 Q101  -0.5930 
 22 CL1     11.1790     6.6660    27.1670 Cl    1 Q101  -0.0550 
 23 C1      10.6680     7.5100    25.7440 C.2   1 Q101   0.0330 
 24 C2      11.4640     8.0940    24.8160 C.2   1 Q101  -0.1460 
 25 S2       8.9880     7.6570    25.4110 S.3   1 Q101   0.0240 
 26 C3      10.7070     8.6870    23.8030 C.2   1 Q101  -0.1130 
 27 C4       9.3340     8.5500    23.9690 C.2   1 Q101  -0.0920 
 28 C5       8.3350     9.0890    23.0400 C.2   1 Q101   0.0810 
 29 C6       7.0220     8.8620    23.0740 C.2   1 Q101  -0.4200 
 30 O2       6.7980    10.4080    20.9850 O.2   1 Q101  -0.5930 
 31 H142     1.3510     7.5610    19.3360 H     1 Q101   0.0600 
 32 H141     1.1650     9.3420    19.2990 H     1 Q101   0.0600 
 33 H132     3.4540     9.2550    18.6170 H     1 Q101   0.0720 
 34 H131     3.6910     7.6910    19.4030 H     1 Q101   0.0720 
 35 H83     -1.5540     7.3580    26.5190 H     1 Q101   0.0490 
 36 H82     -2.5890     6.0240    27.1150 H     1 Q101   0.0490 
 37 H81     -1.4510     5.7310    25.7850 H     1 Q101   0.0490 
 38 H73     -5.2190     6.6980    25.5310 H     1 Q101   0.0490 
 39 H72     -4.3540     7.5370    26.8590 H     1 Q101   0.0490 
 40 H71     -4.6190     8.3500    25.2900 H     1 Q101   0.0490 
 41 H6       6.5440     8.1100    23.6850 H     1 Q101   0.1940 
 42 H5       8.7500     9.7740    22.3010 H     1 Q101   0.1560 
 43 H3      11.1470     9.1970    22.9500 H     1 Q101   0.1600 
 44 H26     -1.2360     5.1710    22.5000 H     1 Q101   0.1600 
 45 H24     -2.1820     9.1870    23.7350 H     1 Q101   0.1630 
 46 H21     -0.2170    10.0130    22.5580 H     1 Q101   0.1530 
 47 H2      12.5460     8.0980    24.8430 H     1 Q101   0.1720 
 48 H12      3.7380    10.4420    20.6370 H     1 Q101   0.0910 
 49 H1       5.0530     7.8600    21.4880 H     1 Q101   0.4670 
@<TRIPOS>BOND
  1   1   2  am  
  2   1   9  1   
  3   1  49  1   
  4   2  21  2   
  5   2  29  1   
  6   2  30  2   
  7   3  11  1   
  8   3  12  1   
  9   3  19  am  
 10   4   7  1   
 11   4   8  1   
 12   4  18  am  
 13   5  19  2   
 14   6  18  2   
 15   7  38  1   
 16   7  39  1   
 17   7  40  1   
 18   8  35  1   
 19   8  36  1   
 20   8  37  1   
 21   9  10  1   
 22   9  19  1   
 23   9  48  1   
 24  10  11  1   
 25  10  33  1   
 26  10  34  1   
 27  11  31  1   
 28  11  32  1   
 29  12  13  ar  
 30  12  14  ar  
 31  13  15  ar  
 32  13  46  1   
 33  14  16  ar  
 34  14  20  1   
 35  15  17  ar  
 36  15  45  1   
 37  16  17  ar  
 38  16  44  1   
 39  17  18  1   
 40  22  23  1   
 41  23  24  2   
 42  23  25  1   
 43  24  26  1   
 44  24  47  1   
 45  25  27  1   
 46  26  27  2   
 47  26  43  1   
 48  27  28  1   
 49  28  29  2   
 50  28  42  1   
 51  29  41  1   
@<TRIPOS>SUBSTRUCTURE
  1 Q101   5 GROUP 4 **** **** 0

# MOE 2011.10 (io_trps.svl 2011.10)

@<TRIPOS>MOLECULE
FXA101_190
49 51 1 0 0 
SMALL
USER_CHARGES


@<TRIPOS>ATOM
  1 N1       5.3280     8.1880    23.0760 N.am  1 Q101  -0.8960 
  2 S1       6.0730     8.8670    24.3380 S.o2  1 Q101   1.3220 
  3 N2       2.7710     9.0150    20.9200 N.am  1 Q101  -0.3970 
  4 N3      -3.6980     9.5320    21.0090 N.am  1 Q101  -0.4840 
  5 O3       2.7430     9.5070    23.1720 O.2   1 Q101  -0.6040 
  6 O4      -3.2880     8.8840    18.9230 O.2   1 Q101  -0.6060 
  7 C7      -4.7840    10.4330    20.5890 C.3   1 Q101   0.0840 
  8 C8      -3.6400     9.1390    22.4260 C.3   1 Q101   0.0840 
  9 C12      4.8360     9.0230    22.0050 C.3   1 Q101   0.1690 
 10 C13      5.0150     8.4060    20.6140 C.3   1 Q101  -0.1080 
 11 C14      3.7370     8.7590    19.8620 C.3   1 Q101   0.1020 
 12 C15      1.3600     9.0260    20.6860 C.ar  1 Q101   0.0330 
 13 C21      0.7060    10.1810    20.2810 C.ar  1 Q101  -0.1060 
 14 C22      0.5990     7.8830    20.8850 C.ar  1 Q101   0.1210 
 15 C24     -0.6580    10.1970    20.0700 C.ar  1 Q101  -0.0920 
 16 C26     -0.7720     7.8620    20.6850 C.ar  1 Q101  -0.1400 
 17 C27     -1.3940     9.0380    20.2670 C.ar  1 Q101  -0.1150 
 18 C28     -2.8650     9.1520    20.0360 C.2   1 Q101   0.6760 
 19 C50      3.3310     9.2180    22.1400 C.2   1 Q101   0.6950 
 20 F1       1.2250     6.7650    21.2870 F     1 Q101  -0.1400 
 21 O1       5.5560     8.1640    25.4720 O.2   1 Q101  -0.5930 
 22 CL1     13.5890     7.3020    27.1210 Cl    1 Q101  -0.0550 
 23 C1      12.1640     7.7030    26.2230 C.2   1 Q101   0.0330 
 24 C2      12.1090     8.3340    25.0260 C.2   1 Q101  -0.1460 
 25 S2      10.6230     7.2780    26.8580 S.3   1 Q101   0.0240 
 26 C3      10.7870     8.4940    24.5990 C.2   1 Q101  -0.1130 
 27 C4       9.8440     7.9790    25.4800 C.2   1 Q101  -0.0920 
 28 C5       8.3940     8.0290    25.2550 C.2   1 Q101   0.0810 
 29 C6       7.7770     8.5540    24.1970 C.2   1 Q101  -0.4200 
 30 O2       5.8090    10.2650    24.1420 O.2   1 Q101  -0.5930 
 31 H142     3.3980     7.9450    19.2130 H     1 Q101   0.0600 
 32 H141     3.8640     9.6740    19.2740 H     1 Q101   0.0600 
 33 H132     5.9130     8.7710    20.1080 H     1 Q101   0.0720 
 34 H131     5.1040     7.3150    20.6940 H     1 Q101   0.0720 
 35 H83     -3.1450     9.9260    22.9910 H     1 Q101   0.0490 
 36 H82     -4.6580     8.9870    22.7960 H     1 Q101   0.0490 
 37 H81     -3.0910     8.2050    22.5100 H     1 Q101   0.0490 
 38 H73     -5.4280     9.8960    19.8880 H     1 Q101   0.0490 
 39 H72     -5.3620    10.7680    21.4540 H     1 Q101   0.0490 
 40 H71     -4.3620    11.3020    20.0730 H     1 Q101   0.0490 
 41 H6       8.2640     8.8100    23.2670 H     1 Q101   0.1940 
 42 H5       7.8150     7.5320    26.0320 H     1 Q101   0.1560 
 43 H3      10.5170     8.9620    23.6580 H     1 Q101   0.1600 
 44 H26     -1.3310     6.9490    20.8430 H     1 Q101   0.1600 
 45 H24     -1.1450    11.1210    19.7900 H     1 Q101   0.1630 
 46 H21      1.2660    11.1020    20.1360 H     1 Q101   0.1530 
 47 H2      12.9690     8.6680    24.4620 H     1 Q101   0.1720 
 48 H12      5.2860    10.0230    22.0080 H     1 Q101   0.0910 
 49 H1       4.8110     7.3240    23.2610 H     1 Q101   0.4670 
@<TRIPOS>BOND
  1   1   2  am  
  2   1   9  1   
  3   1  49  1   
  4   2  21  2   
  5   2  29  1   
  6   2  30  2   
  7   3  11  1   
  8   3  12  1   
  9   3  19  am  
 10   4   7  1   
 11   4   8  1   
 12   4  18  am  
 13   5  19  2   
 14   6  18  2   
 15   7  38  1   
 16   7  39  1   
 17   7  40  1   
 18   8  35  1   
 19   8  36  1   
 20   8  37  1   
 21   9  10  1   
 22   9  19  1   
 23   9  48  1   
 24  10  11  1   
 25  10  33  1   
 26  10  34  1   
 27  11  31  1   
 28  11  32  1   
 29  12  13  ar  
 30  12  14  ar  
 31  13  15  ar  
 32  13  46  1   
 33  14  16  ar  
 34  14  20  1   
 35  15  17  ar  
 36  15  45  1   
 37  16  17  ar  
 38  16  44  1   
 39  17  18  1   
 40  22  23  1   
 41  23  24  2   
 42  23  25  1   
 43  24  26  1   
 44  24  47  1   
 45  25  27  1   
 46  26  27  2   
 47  26  43  1   
 48  27  28  1   
 49  28  29  2   
 50  28  42  1   
 51  29  41  1   
@<TRIPOS>SUBSTRUCTURE
  1 Q101  19 GROUP 4 **** **** 0

# MOE 2011.10 (io_trps.svl 2011.10)

@<TRIPOS>MOLECULE
FXA101_191
49 51 1 0 0 
SMALL
USER_CHARGES


@<TRIPOS>ATOM
  1 N1       5.5160     8.3480    22.5910 N.am  1 Q101  -0.8960 
  2 S1       6.8860     9.2020    22.6250 S.o2  1 Q101   1.3220 
  3 N2       2.1490     9.0380    22.3550 N.am  1 Q101  -0.3970 
  4 N3      -3.7220     9.5840    25.0700 N.am  1 Q101  -0.4840 
  5 O3       3.6300    10.3370    23.5500 O.2   1 Q101  -0.6040 
  6 O4      -2.6480    11.3600    25.8640 O.2   1 Q101  -0.6060 
  7 C7      -3.7660     8.4830    26.0450 C.3   1 Q101   0.0840 
  8 C8      -4.8470     9.7140    24.1280 C.3   1 Q101   0.0840 
  9 C12      4.4030     8.8170    21.7980 C.3   1 Q101   0.1690 
 10 C13      3.6170     7.6910    21.1180 C.3   1 Q101  -0.1080 
 11 C14      2.1550     8.1080    21.2340 C.3   1 Q101   0.1020 
 12 C15      0.9500     9.3970    23.0470 C.ar  1 Q101   0.0330 
 13 C21      0.6780     8.9120    24.3180 C.ar  1 Q101  -0.1060 
 14 C22      0.0080    10.2230    22.4510 C.ar  1 Q101   0.1210 
 15 C24     -0.4860     9.2450    24.9810 C.ar  1 Q101  -0.0920 
 16 C26     -1.1730    10.5780    23.0850 C.ar  1 Q101  -0.1400 
 17 C27     -1.4070    10.0800    24.3670 C.ar  1 Q101  -0.1150 
 18 C28     -2.6460    10.3720    25.1470 C.2   1 Q101   0.6760 
 19 C50      3.3770     9.5070    22.6890 C.2   1 Q101   0.6950 
 20 F1       0.2600    10.6880    21.2170 F     1 Q101  -0.1400 
 21 O1       6.4990    10.4670    23.1710 O.2   1 Q101  -0.5930 
 22 CL1     12.3880     7.1700    27.9720 Cl    1 Q101  -0.0550 
 23 C1      11.7820     7.6940    26.4370 C.2   1 Q101   0.0330 
 24 C2      12.5120     7.9920    25.3350 C.2   1 Q101  -0.1460 
 25 S2      10.0860     7.8730    26.2180 S.3   1 Q101   0.0240 
 26 C3      11.6890     8.3840    24.2750 C.2   1 Q101  -0.1130 
 27 C4      10.3340     8.3820    24.5820 C.2   1 Q101  -0.0920 
 28 C5       9.2750     8.7580    23.6380 C.2   1 Q101   0.0810 
 29 C6       7.9890     8.4200    23.7170 C.2   1 Q101  -0.4200 
 30 O2       7.3610     9.0860    21.2750 O.2   1 Q101  -0.5930 
 31 H142     1.4940     7.2580    21.4300 H     1 Q101   0.0600 
 32 H141     1.8220     8.6380    20.3360 H     1 Q101   0.0600 
 33 H132     3.9260     7.5350    20.0800 H     1 Q101   0.0720 
 34 H131     3.7720     6.7450    21.6530 H     1 Q101   0.0720 
 35 H83     -4.6920     9.0300    23.2960 H     1 Q101   0.0490 
 36 H82     -5.7780     9.4750    24.6500 H     1 Q101   0.0490 
 37 H81     -4.8930    10.7410    23.7760 H     1 Q101   0.0490 
 38 H73     -3.8280     8.9110    27.0490 H     1 Q101   0.0490 
 39 H72     -4.6270     7.8360    25.8570 H     1 Q101   0.0490 
 40 H71     -2.8450     7.8950    25.9770 H     1 Q101   0.0490 
 41 H6       7.5880     7.6860    24.4020 H     1 Q101   0.1940 
 42 H5       9.6160     9.4190    22.8420 H     1 Q101   0.1560 
 43 H3      12.0680     8.6510    23.2940 H     1 Q101   0.1600 
 44 H26     -1.8810    11.2310    22.5920 H     1 Q101   0.1600 
 45 H24     -0.6860     8.8220    25.9560 H     1 Q101   0.1630 
 46 H21      1.3830     8.2440    24.8080 H     1 Q101   0.1530 
 47 H2      13.5890     7.9280    25.2700 H     1 Q101   0.1720 
 48 H12      4.7040     9.5470    21.0380 H     1 Q101   0.0910 
 49 H1       5.2880     7.8150    23.4350 H     1 Q101   0.4670 
@<TRIPOS>BOND
  1   1   2  am  
  2   1   9  1   
  3   1  49  1   
  4   2  21  2   
  5   2  29  1   
  6   2  30  2   
  7   3  11  1   
  8   3  12  1   
  9   3  19  am  
 10   4   7  1   
 11   4   8  1   
 12   4  18  am  
 13   5  19  2   
 14   6  18  2   
 15   7  38  1   
 16   7  39  1   
 17   7  40  1   
 18   8  35  1   
 19   8  36  1   
 20   8  37  1   
 21   9  10  1   
 22   9  19  1   
 23   9  48  1   
 24  10  11  1   
 25  10  33  1   
 26  10  34  1   
 27  11  31  1   
 28  11  32  1   
 29  12  13  ar  
 30  12  14  ar  
 31  13  15  ar  
 32  13  46  1   
 33  14  16  ar  
 34  14  20  1   
 35  15  17  ar  
 36  15  45  1   
 37  16  17  ar  
 38  16  44  1   
 39  17  18  1   
 40  22  23  1   
 41  23  24  2   
 42  23  25  1   
 43  24  26  1   
 44  24  47  1   
 45  25  27  1   
 46  26  27  2   
 47  26  43  1   
 48  27  28  1   
 49  28  29  2   
 50  28  42  1   
 51  29  41  1   
@<TRIPOS>SUBSTRUCTURE
  1 Q101   5 GROUP 4 **** **** 0

# MOE 2011.10 (io_trps.svl 2011.10)

@<TRIPOS>MOLECULE
FXA101_192
49 51 1 0 0 
SMALL
USER_CHARGES


@<TRIPOS>ATOM
  1 N1       5.9710     5.9290    16.3150 N.am  1 Q101  -0.8960 
  2 S1       4.9330     5.4320    15.1820 S.o2  1 Q101   1.3220 
  3 N2       6.9430     6.0590    19.6170 N.am  1 Q101  -0.3970 
  4 N3       9.5610     8.8110    24.9010 N.am  1 Q101  -0.4840 
  5 O3       5.5330     7.6020    18.6470 O.2   1 Q101  -0.6040 
  6 O4       8.4330    10.4750    23.9540 O.2   1 Q101  -0.6060 
  7 C7      11.0050     9.0600    24.7690 C.3   1 Q101   0.0840 
  8 C8       9.0980     8.0560    26.0780 C.3   1 Q101   0.0840 
  9 C12      5.8740     5.3950    17.6540 C.3   1 Q101   0.1690 
 10 C13      6.9660     4.3740    17.9870 C.3   1 Q101  -0.1080 
 11 C14      7.3590     4.6770    19.4290 C.3   1 Q101   0.1020 
 12 C15      7.4340     6.8700    20.6890 C.ar  1 Q101   0.0330 
 13 C21      6.8800     6.7980    21.9590 C.ar  1 Q101  -0.1060 
 14 C22      8.4650     7.7740    20.4790 C.ar  1 Q101   0.1210 
 15 C24      7.3420     7.5910    22.9900 C.ar  1 Q101  -0.0920 
 16 C26      8.9540     8.5880    21.4890 C.ar  1 Q101  -0.1400 
 17 C27      8.3800     8.4800    22.7560 C.ar  1 Q101  -0.1150 
 18 C28      8.8030     9.3120    23.9220 C.2   1 Q101   0.6760 
 19 C50      6.0720     6.5060    18.6780 C.2   1 Q101   0.6950 
 20 F1       8.9990     7.8560    19.2490 F     1 Q101  -0.1400 
 21 O1       3.9940     4.6230    15.8950 O.2   1 Q101  -0.5930 
 22 CL1      0.3660     3.1760    11.1020 Cl    1 Q101  -0.0550 
 23 C1       1.6520     4.2990    11.3920 C.2   1 Q101   0.0330 
 24 C2       2.6290     4.6560    10.5250 C.2   1 Q101  -0.1460 
 25 S2       1.7540     5.0830    12.9190 S.3   1 Q101   0.0240 
 26 C3       3.5000     5.5860    11.1000 C.2   1 Q101  -0.1130 
 27 C4       3.1750     5.9300    12.4070 C.2   1 Q101  -0.0920 
 28 C5       3.9390     6.8820    13.2220 C.2   1 Q101   0.0810 
 29 C6       4.1170     6.8280    14.5410 C.2   1 Q101  -0.4200 
 30 O2       5.8010     4.8680    14.1870 O.2   1 Q101  -0.5930 
 31 H142     8.4350     4.5680    19.5980 H     1 Q101   0.0600 
 32 H141     6.8060     4.0450    20.1310 H     1 Q101   0.0600 
 33 H132     6.6280     3.3420    17.8540 H     1 Q101   0.0720 
 34 H131     7.8340     4.5220    17.3320 H     1 Q101   0.0720 
 35 H83      9.2180     6.9920    25.8850 H     1 Q101   0.0490 
 36 H82      9.6890     8.3550    26.9480 H     1 Q101   0.0490 
 37 H81      8.0540     8.2960    26.2600 H     1 Q101   0.0490 
 38 H73     11.1780    10.1370    24.8300 H     1 Q101   0.0490 
 39 H72     11.5590     8.5420    25.5560 H     1 Q101   0.0490 
 40 H71     11.3500     8.7110    23.7890 H     1 Q101   0.0490 
 41 H6       3.8030     7.5930    15.2350 H     1 Q101   0.1940 
 42 H5       4.4280     7.6610    12.6380 H     1 Q101   0.1560 
 43 H3       4.3450     6.0170    10.5730 H     1 Q101   0.1600 
 44 H26      9.7650     9.2760    21.2900 H     1 Q101   0.1600 
 45 H24      6.8660     7.5380    23.9600 H     1 Q101   0.1630 
 46 H21      6.0560     6.1170    22.1560 H     1 Q101   0.1530 
 47 H2       2.7280     4.2830     9.5150 H     1 Q101   0.1720 
 48 H12      4.8960     4.9460    17.8600 H     1 Q101   0.0910 
 49 H1       6.3220     6.8860    16.2250 H     1 Q101   0.4670 
@<TRIPOS>BOND
  1   1   2  am  
  2   1   9  1   
  3   1  49  1   
  4   2  21  2   
  5   2  29  1   
  6   2  30  2   
  7   3  11  1   
  8   3  12  1   
  9   3  19  am  
 10   4   7  1   
 11   4   8  1   
 12   4  18  am  
 13   5  19  2   
 14   6  18  2   
 15   7  38  1   
 16   7  39  1   
 17   7  40  1   
 18   8  35  1   
 19   8  36  1   
 20   8  37  1   
 21   9  10  1   
 22   9  19  1   
 23   9  48  1   
 24  10  11  1   
 25  10  33  1   
 26  10  34  1   
 27  11  31  1   
 28  11  32  1   
 29  12  13  ar  
 30  12  14  ar  
 31  13  15  ar  
 32  13  46  1   
 33  14  16  ar  
 34  14  20  1   
 35  15  17  ar  
 36  15  45  1   
 37  16  17  ar  
 38  16  44  1   
 39  17  18  1   
 40  22  23  1   
 41  23  24  2   
 42  23  25  1   
 43  24  26  1   
 44  24  47  1   
 45  25  27  1   
 46  26  27  2   
 47  26  43  1   
 48  27  28  1   
 49  28  29  2   
 50  28  42  1   
 51  29  41  1   
@<TRIPOS>SUBSTRUCTURE
  1 Q101  19 GROUP 4 **** **** 0

# MOE 2011.10 (io_trps.svl 2011.10)

@<TRIPOS>MOLECULE
FXA101_193
49 51 1 0 0 
SMALL
USER_CHARGES


@<TRIPOS>ATOM
  1 N1       4.0540     8.0660    23.5720 N.am  1 Q101  -0.8960 
  2 S1       4.8760     9.2560    24.2920 S.o2  1 Q101   1.3220 
  3 N2       0.8550     6.7940    23.6840 N.am  1 Q101  -0.3970 
  4 N3      -2.3980     2.5800    27.4290 N.am  1 Q101  -0.4840 
  5 O3       1.9950     7.5290    25.5470 O.2   1 Q101  -0.6040 
  6 O4      -3.9280     3.2750    25.9740 O.2   1 Q101  -0.6060 
  7 C7      -2.2670     3.3360    28.6850 C.3   1 Q101   0.0840 
  8 C8      -2.1180     1.1350    27.4640 C.3   1 Q101   0.0840 
  9 C12      2.6460     8.2380    23.3000 C.3   1 Q101   0.1690 
 10 C13      2.2030     7.6390    21.9610 C.3   1 Q101  -0.1080 
 11 C14      0.8430     7.0100    22.2440 C.3   1 Q101   0.1020 
 12 C15     -0.0570     5.9030    24.3340 C.ar  1 Q101   0.0330 
 13 C21     -1.0690     6.3810    25.1540 C.ar  1 Q101  -0.1060 
 14 C22      0.0650     4.5300    24.1840 C.ar  1 Q101   0.1210 
 15 C24     -1.9390     5.5220    25.7950 C.ar  1 Q101  -0.0920 
 16 C26     -0.7880     3.6370    24.8120 C.ar  1 Q101  -0.1400 
 17 C27     -1.8020     4.1530    25.6200 C.ar  1 Q101  -0.1150 
 18 C28     -2.7720     3.2980    26.3670 C.2   1 Q101   0.6760 
 19 C50      1.8160     7.4930    24.3380 C.2   1 Q101   0.6950 
 20 F1       1.0490     4.0610    23.3990 F     1 Q101  -0.1400 
 21 O1       4.0280     9.6720    25.3650 O.2   1 Q101  -0.5930 
 22 CL1     12.0340     6.9790    26.9070 Cl    1 Q101  -0.0550 
 23 C1      10.8920     7.7260    25.8410 C.2   1 Q101   0.0330 
 24 C2      11.1690     8.4340    24.7200 C.2   1 Q101  -0.1460 
 25 S2       9.2120     7.5900    26.1810 S.3   1 Q101   0.0240 
 26 C3       9.9990     8.8930    24.1100 C.2   1 Q101  -0.1130 
 27 C4       8.8340     8.5280    24.7750 C.2   1 Q101  -0.0920 
 28 C5       7.4840     8.8920    24.3320 C.2   1 Q101   0.0810 
 29 C6       6.3410     8.5860    24.9460 C.2   1 Q101  -0.4200 
 30 O2       5.1800    10.1340    23.1970 O.2   1 Q101  -0.5930 
 31 H142     0.7030     6.0650    21.7100 H     1 Q101   0.0600 
 32 H141     0.0290     7.6990    22.0000 H     1 Q101   0.0600 
 33 H132     2.1590     8.3860    21.1640 H     1 Q101   0.0720 
 34 H131     2.9070     6.8600    21.6440 H     1 Q101   0.0720 
 35 H83     -1.0440     0.9810    27.3930 H     1 Q101   0.0490 
 36 H82     -2.5010     0.7200    28.4010 H     1 Q101   0.0490 
 37 H81     -2.6290     0.6580    26.6320 H     1 Q101   0.0490 
 38 H73     -3.2530     3.7200    28.9630 H     1 Q101   0.0490 
 39 H72     -1.8720     2.6980    29.4790 H     1 Q101   0.0490 
 40 H71     -1.5960     4.1880    28.5330 H     1 Q101   0.0490 
 41 H6       6.2620     7.9430    25.8100 H     1 Q101   0.1940 
 42 H5       7.4720     9.5150    23.4380 H     1 Q101   0.1560 
 43 H3       9.9920     9.4680    23.1900 H     1 Q101   0.1600 
 44 H26     -0.6680     2.5720    24.6650 H     1 Q101   0.1600 
 45 H24     -2.6960     5.9230    26.4570 H     1 Q101   0.1630 
 46 H21     -1.1820     7.4500    25.3140 H     1 Q101   0.1530 
 47 H2      12.1630     8.6190    24.3350 H     1 Q101   0.1720 
 48 H12      2.3320     9.2880    23.3380 H     1 Q101   0.0910 
 49 H1       4.3750     7.1120    23.7560 H     1 Q101   0.4670 
@<TRIPOS>BOND
  1   1   2  am  
  2   1   9  1   
  3   1  49  1   
  4   2  21  2   
  5   2  29  1   
  6   2  30  2   
  7   3  11  1   
  8   3  12  1   
  9   3  19  am  
 10   4   7  1   
 11   4   8  1   
 12   4  18  am  
 13   5  19  2   
 14   6  18  2   
 15   7  38  1   
 16   7  39  1   
 17   7  40  1   
 18   8  35  1   
 19   8  36  1   
 20   8  37  1   
 21   9  10  1   
 22   9  19  1   
 23   9  48  1   
 24  10  11  1   
 25  10  33  1   
 26  10  34  1   
 27  11  31  1   
 28  11  32  1   
 29  12  13  ar  
 30  12  14  ar  
 31  13  15  ar  
 32  13  46  1   
 33  14  16  ar  
 34  14  20  1   
 35  15  17  ar  
 36  15  45  1   
 37  16  17  ar  
 38  16  44  1   
 39  17  18  1   
 40  22  23  1   
 41  23  24  2   
 42  23  25  1   
 43  24  26  1   
 44  24  47  1   
 45  25  27  1   
 46  26  27  2   
 47  26  43  1   
 48  27  28  1   
 49  28  29  2   
 50  28  42  1   
 51  29  41  1   
@<TRIPOS>SUBSTRUCTURE
  1 Q101   5 GROUP 4 **** **** 0

# MOE 2011.10 (io_trps.svl 2011.10)

@<TRIPOS>MOLECULE
FXA101_194
49 51 1 0 0 
SMALL
USER_CHARGES


@<TRIPOS>ATOM
  1 N1       6.3300     8.7360    22.9670 N.am  1 Q101  -0.8960 
  2 S1       7.5520     9.5900    22.3450 S.o2  1 Q101   1.3220 
  3 N2       3.3040     7.1430    22.5530 N.am  1 Q101  -0.3970 
  4 N3      -2.6940     7.2020    25.1430 N.am  1 Q101  -0.4840 
  5 O3       3.5020     9.3920    23.0130 O.2   1 Q101  -0.6040 
  6 O4      -2.3730     5.0990    24.4980 O.2   1 Q101  -0.6060 
  7 C7      -3.0870     6.9410    26.5370 C.3   1 Q101   0.0840 
  8 C8      -3.1330     8.4660    24.5300 C.3   1 Q101   0.0840 
  9 C12      5.3700     8.1190    22.0820 C.3   1 Q101   0.1690 
 10 C13      5.5140     6.5960    21.9890 C.3   1 Q101  -0.1080 
 11 C14      4.0840     6.0690    21.9540 C.3   1 Q101   0.1020 
 12 C15      1.9790     6.9430    23.0530 C.ar  1 Q101   0.0330 
 13 C21      1.7500     6.2310    24.2220 C.ar  1 Q101  -0.1060 
 14 C22      0.8800     7.4350    22.3650 C.ar  1 Q101   0.1210 
 15 C24      0.4700     6.0230    24.6970 C.ar  1 Q101  -0.0920 
 16 C26     -0.4190     7.2450    22.8100 C.ar  1 Q101  -0.1400 
 17 C27     -0.6110     6.5340    23.9940 C.ar  1 Q101  -0.1150 
 18 C28     -1.9590     6.2450    24.5690 C.2   1 Q101   0.6760 
 19 C50      3.9560     8.3310    22.6110 C.2   1 Q101   0.6950 
 20 F1       1.0940     8.1160    21.2270 F     1 Q101  -0.1400 
 21 O1       7.2990    10.9310    22.7750 O.2   1 Q101  -0.5930 
 22 CL1     13.9910     7.4740    26.5320 Cl    1 Q101  -0.0550 
 23 C1      12.3080     7.7240    26.2070 C.2   1 Q101   0.0330 
 24 C2      11.2660     7.3570    26.9910 C.2   1 Q101  -0.1460 
 25 S2      11.8420     8.5180    24.7550 S.3   1 Q101   0.0240 
 26 C3      10.0470     7.7160    26.4110 C.2   1 Q101  -0.1130 
 27 C4      10.1720     8.3560    25.1840 C.2   1 Q101  -0.0920 
 28 C5       9.0370     8.8250    24.3800 C.2   1 Q101   0.0810 
 29 C6       9.0310     9.0270    23.0630 C.2   1 Q101  -0.4200 
 30 O2       7.5090     9.2320    20.9560 O.2   1 Q101  -0.5930 
 31 H142     3.9690     5.1410    22.5220 H     1 Q101   0.0600 
 32 H141     3.7410     5.9190    20.9250 H     1 Q101   0.0600 
 33 H132     6.0950     6.2850    21.1160 H     1 Q101   0.0720 
 34 H131     6.0250     6.2090    22.8790 H     1 Q101   0.0720 
 35 H83     -4.1540     8.3510    24.1730 H     1 Q101   0.0490 
 36 H82     -3.0770     9.2630    25.2760 H     1 Q101   0.0490 
 37 H81     -2.4650     8.7070    23.7060 H     1 Q101   0.0490 
 38 H73     -2.1820     6.9040    27.1500 H     1 Q101   0.0490 
 39 H72     -3.7580     7.7230    26.9000 H     1 Q101   0.0490 
 40 H71     -3.5880     5.9700    26.6020 H     1 Q101   0.0490 
 41 H6       9.8830     8.8780    22.4160 H     1 Q101   0.1940 
 42 H5       8.1210     8.9590    24.9560 H     1 Q101   0.1560 
 43 H3       9.0860     7.5300    26.8800 H     1 Q101   0.1600 
 44 H26     -1.2510     7.6500    22.2500 H     1 Q101   0.1600 
 45 H24      0.3210     5.4340    25.5910 H     1 Q101   0.1630 
 46 H21      2.5850     5.8110    24.7770 H     1 Q101   0.1530 
 47 H2      11.3560     6.8590    27.9460 H     1 Q101   0.1720 
 48 H12      5.3960     8.5390    21.0700 H     1 Q101   0.0910 
 49 H1       5.9880     9.0310    23.8860 H     1 Q101   0.4670 
@<TRIPOS>BOND
  1   1   2  am  
  2   1   9  1   
  3   1  49  1   
  4   2  21  2   
  5   2  29  1   
  6   2  30  2   
  7   3  11  1   
  8   3  12  1   
  9   3  19  am  
 10   4   7  1   
 11   4   8  1   
 12   4  18  am  
 13   5  19  2   
 14   6  18  2   
 15   7  38  1   
 16   7  39  1   
 17   7  40  1   
 18   8  35  1   
 19   8  36  1   
 20   8  37  1   
 21   9  10  1   
 22   9  19  1   
 23   9  48  1   
 24  10  11  1   
 25  10  33  1   
 26  10  34  1   
 27  11  31  1   
 28  11  32  1   
 29  12  13  ar  
 30  12  14  ar  
 31  13  15  ar  
 32  13  46  1   
 33  14  16  ar  
 34  14  20  1   
 35  15  17  ar  
 36  15  45  1   
 37  16  17  ar  
 38  16  44  1   
 39  17  18  1   
 40  22  23  1   
 41  23  24  2   
 42  23  25  1   
 43  24  26  1   
 44  24  47  1   
 45  25  27  1   
 46  26  27  2   
 47  26  43  1   
 48  27  28  1   
 49  28  29  2   
 50  28  42  1   
 51  29  41  1   
@<TRIPOS>SUBSTRUCTURE
  1 Q101  19 GROUP 4 **** **** 0

# MOE 2011.10 (io_trps.svl 2011.10)

@<TRIPOS>MOLECULE
FXA101_195
49 51 1 0 0 
SMALL
USER_CHARGES


@<TRIPOS>ATOM
  1 N1       5.7140    10.3730    16.8110 N.am  1 Q101  -0.8960 
  2 S1       5.5290    11.0580    15.3600 S.o2  1 Q101   1.3220 
  3 N2       6.6330    10.7000    20.1140 N.am  1 Q101  -0.3970 
  4 N3       9.3580     8.2840    25.4880 N.am  1 Q101  -0.4840 
  5 O3       8.1480    10.5230    18.3870 O.2   1 Q101  -0.6040 
  6 O4      11.1160     8.7060    24.1950 O.2   1 Q101  -0.6060 
  7 C7      10.3130     7.8560    26.5230 C.3   1 Q101   0.0840 
  8 C8       7.9220     8.1710    25.7880 C.3   1 Q101   0.0840 
  9 C12      5.8370    11.2090    17.9820 C.3   1 Q101   0.1690 
 10 C13      4.6450    11.1020    18.9390 C.3   1 Q101  -0.1080 
 11 C14      5.2590    11.1260    20.3340 C.3   1 Q101   0.1020 
 12 C15      7.4710    10.2300    21.1760 C.ar  1 Q101   0.0330 
 13 C21      7.7840     8.8850    21.3040 C.ar  1 Q101  -0.1060 
 14 C22      7.9710    11.1090    22.1250 C.ar  1 Q101   0.1210 
 15 C24      8.5790     8.4290    22.3370 C.ar  1 Q101  -0.0920 
 16 C26      8.7710    10.6880    23.1760 C.ar  1 Q101  -0.1400 
 17 C27      9.0750     9.3300    23.2680 C.ar  1 Q101  -0.1150 
 18 C28      9.9080     8.7470    24.3610 C.2   1 Q101   0.6760 
 19 C50      7.0320    10.7680    18.8190 C.2   1 Q101   0.6950 
 20 F1       7.6630    12.4120    22.0110 F     1 Q101  -0.1400 
 21 O1       6.7780    10.8320    14.7000 O.2   1 Q101  -0.5930 
 22 CL1     -0.5170     6.3350    13.5590 Cl    1 Q101  -0.0550 
 23 C1       0.2450     7.7810    14.1310 C.2   1 Q101   0.0330 
 24 C2      -0.3550     8.8210    14.7600 C.2   1 Q101  -0.1460 
 25 S2       1.9390     7.9810    13.9150 S.3   1 Q101   0.0240 
 26 C3       0.5700     9.8200    15.0760 C.2   1 Q101  -0.1130 
 27 C4       1.8710     9.5310    14.6840 C.2   1 Q101  -0.0920 
 28 C5       3.0150    10.4240    14.9020 C.2   1 Q101   0.0810 
 29 C6       4.2710    10.2080    14.5130 C.2   1 Q101  -0.4200 
 30 O2       5.0910    12.3850    15.6930 O.2   1 Q101  -0.5930 
 31 H142     4.7470    10.4490    21.0250 H     1 Q101   0.0600 
 32 H141     5.2680    12.1400    20.7460 H     1 Q101   0.0600 
 33 H132     3.9170    11.9050    18.7890 H     1 Q101   0.0720 
 34 H131     4.1210    10.1510    18.7850 H     1 Q101   0.0720 
 35 H83      7.6000     7.1490    25.5980 H     1 Q101   0.0490 
 36 H82      7.7540     8.4340    26.8360 H     1 Q101   0.0490 
 37 H81      7.3750     8.8670    25.1570 H     1 Q101   0.0490 
 38 H73     10.8840     8.7290    26.8500 H     1 Q101   0.0490 
 39 H72      9.7870     7.4080    27.3700 H     1 Q101   0.0490 
 40 H71     11.0120     7.1270    26.0990 H     1 Q101   0.0490 
 41 H6       4.5600     9.5350    13.7200 H     1 Q101   0.1940 
 42 H5       2.7490    11.3610    15.3900 H     1 Q101   0.1560 
 43 H3       0.3040    10.7350    15.5970 H     1 Q101   0.1600 
 44 H26      9.1500    11.4040    23.8930 H     1 Q101   0.1600 
 45 H24      8.7770     7.3700    22.4320 H     1 Q101   0.1630 
 46 H21      7.3920     8.1630    20.5920 H     1 Q101   0.1530 
 47 H2      -1.4080     8.8760    14.9980 H     1 Q101   0.1720 
 48 H12      5.9970    12.2650    17.7340 H     1 Q101   0.0910 
 49 H1       6.2030     9.4750    16.8330 H     1 Q101   0.4670 
@<TRIPOS>BOND
  1   1   2  am  
  2   1   9  1   
  3   1  49  1   
  4   2  21  2   
  5   2  29  1   
  6   2  30  2   
  7   3  11  1   
  8   3  12  1   
  9   3  19  am  
 10   4   7  1   
 11   4   8  1   
 12   4  18  am  
 13   5  19  2   
 14   6  18  2   
 15   7  38  1   
 16   7  39  1   
 17   7  40  1   
 18   8  35  1   
 19   8  36  1   
 20   8  37  1   
 21   9  10  1   
 22   9  19  1   
 23   9  48  1   
 24  10  11  1   
 25  10  33  1   
 26  10  34  1   
 27  11  31  1   
 28  11  32  1   
 29  12  13  ar  
 30  12  14  ar  
 31  13  15  ar  
 32  13  46  1   
 33  14  16  ar  
 34  14  20  1   
 35  15  17  ar  
 36  15  45  1   
 37  16  17  ar  
 38  16  44  1   
 39  17  18  1   
 40  22  23  1   
 41  23  24  2   
 42  23  25  1   
 43  24  26  1   
 44  24  47  1   
 45  25  27  1   
 46  26  27  2   
 47  26  43  1   
 48  27  28  1   
 49  28  29  2   
 50  28  42  1   
 51  29  41  1   
@<TRIPOS>SUBSTRUCTURE
  1 Q101   3 GROUP 4 **** **** 0

# MOE 2011.10 (io_trps.svl 2011.10)

@<TRIPOS>MOLECULE
FXA101_196
49 51 1 0 0 
SMALL
USER_CHARGES


@<TRIPOS>ATOM
  1 N1       4.0040     9.6000    20.2620 N.am  1 Q101  -0.8960 
  2 S1       2.5480    10.2720    20.0690 S.o2  1 Q101   1.3220 
  3 N2       6.1440     8.2590    22.6050 N.am  1 Q101  -0.3970 
  4 N3      11.5480     7.9440    26.2060 N.am  1 Q101  -0.4840 
  5 O3       5.2600    10.3810    22.7600 O.2   1 Q101  -0.6040 
  6 O4      11.2070    10.1290    25.9890 O.2   1 Q101  -0.6060 
  7 C7      10.8960     7.1240    27.2390 C.3   1 Q101   0.0840 
  8 C8      12.8900     7.5410    25.7540 C.3   1 Q101   0.0840 
  9 C12      4.2220     8.6750    21.3500 C.3   1 Q101   0.1690 
 10 C13      4.8170     7.3350    20.9060 C.3   1 Q101  -0.1080 
 11 C14      5.8290     6.9780    21.9880 C.3   1 Q101   0.1020 
 12 C15      7.3060     8.4560    23.4160 C.ar  1 Q101   0.0330 
 13 C21      8.5370     8.7540    22.8500 C.ar  1 Q101  -0.1060 
 14 C22      7.2380     8.3260    24.7950 C.ar  1 Q101   0.1210 
 15 C24      9.6620     8.9280    23.6300 C.ar  1 Q101  -0.0920 
 16 C26      8.3460     8.4930    25.6100 C.ar  1 Q101  -0.1400 
 17 C27      9.5660     8.8030    25.0080 C.ar  1 Q101  -0.1150 
 18 C28     10.8360     8.9870    25.7710 C.2   1 Q101   0.6760 
 19 C50      5.2520     9.2410    22.3210 C.2   1 Q101   0.6950 
 20 F1       6.0510     8.0280    25.3480 F     1 Q101  -0.1400 
 21 O1       2.7460    11.2540    19.0470 O.2   1 Q101  -0.5930 
 22 CL1     -3.0030     4.9600    17.9990 Cl    1 Q101  -0.0550 
 23 C1      -2.3050     6.2670    18.8940 C.2   1 Q101   0.0330 
 24 C2      -2.8830     6.9610    19.9040 C.2   1 Q101  -0.1460 
 25 S2      -0.7100     6.7880    18.5170 S.3   1 Q101   0.0240 
 26 C3      -2.0270     7.9510    20.3930 C.2   1 Q101  -0.1130 
 27 C4      -0.7970     8.0020    19.7480 C.2   1 Q101  -0.0920 
 28 C5       0.2670     8.9570    20.0790 C.2   1 Q101   0.0810 
 29 C6       1.4570     9.0500    19.4870 C.2   1 Q101  -0.4200 
 30 O2       2.1960    10.6510    21.4080 O.2   1 Q101  -0.5930 
 31 H142     6.7300     6.5110    21.5780 H     1 Q101   0.0600 
 32 H141     5.3850     6.3240    22.7460 H     1 Q101   0.0600 
 33 H132     4.0540     6.5630    20.7760 H     1 Q101   0.0720 
 34 H131     5.3340     7.4510    19.9450 H     1 Q101   0.0720 
 35 H83     13.6290     7.9200    26.4560 H     1 Q101   0.0490 
 36 H82     12.9370     6.4500    25.7030 H     1 Q101   0.0490 
 37 H81     13.0630     7.9480    24.7600 H     1 Q101   0.0490 
 38 H73     10.0020     6.6680    26.8070 H     1 Q101   0.0490 
 39 H72     11.5770     6.3510    27.6040 H     1 Q101   0.0490 
 40 H71     10.5880     7.7620    28.0740 H     1 Q101   0.0490 
 41 H6       1.7940     8.4130    18.6820 H     1 Q101   0.1940 
 42 H5      -0.0110     9.6680    20.8570 H     1 Q101   0.1560 
 43 H3      -2.2860     8.6120    21.2140 H     1 Q101   0.1600 
 44 H26      8.2540     8.3920    26.6840 H     1 Q101   0.1600 
 45 H24     10.6160     9.1240    23.1570 H     1 Q101   0.1630 
 46 H21      8.6340     8.8410    21.7700 H     1 Q101   0.1530 
 47 H2      -3.8750     6.7750    20.2940 H     1 Q101   0.1720 
 48 H12      3.3120     8.4830    21.9310 H     1 Q101   0.0910 
 49 H1       4.8080    10.1580    19.9630 H     1 Q101   0.4670 
@<TRIPOS>BOND
  1   1   2  am  
  2   1   9  1   
  3   1  49  1   
  4   2  21  2   
  5   2  29  1   
  6   2  30  2   
  7   3  11  1   
  8   3  12  1   
  9   3  19  am  
 10   4   7  1   
 11   4   8  1   
 12   4  18  am  
 13   5  19  2   
 14   6  18  2   
 15   7  38  1   
 16   7  39  1   
 17   7  40  1   
 18   8  35  1   
 19   8  36  1   
 20   8  37  1   
 21   9  10  1   
 22   9  19  1   
 23   9  48  1   
 24  10  11  1   
 25  10  33  1   
 26  10  34  1   
 27  11  31  1   
 28  11  32  1   
 29  12  13  ar  
 30  12  14  ar  
 31  13  15  ar  
 32  13  46  1   
 33  14  16  ar  
 34  14  20  1   
 35  15  17  ar  
 36  15  45  1   
 37  16  17  ar  
 38  16  44  1   
 39  17  18  1   
 40  22  23  1   
 41  23  24  2   
 42  23  25  1   
 43  24  26  1   
 44  24  47  1   
 45  25  27  1   
 46  26  27  2   
 47  26  43  1   
 48  27  28  1   
 49  28  29  2   
 50  28  42  1   
 51  29  41  1   
@<TRIPOS>SUBSTRUCTURE
  1 Q101  19 GROUP 4 **** **** 0

# MOE 2011.10 (io_trps.svl 2011.10)

@<TRIPOS>MOLECULE
FXA101_197
49 51 1 0 0 
SMALL
USER_CHARGES


@<TRIPOS>ATOM
  1 N1      -2.0390     9.9490    20.3410 N.am  1 Q101  -0.8960 
  2 S1      -3.1230    10.4110    19.2360 S.o2  1 Q101   1.3220 
  3 N2       0.5940     7.8100    20.9370 N.am  1 Q101  -0.3970 
  4 N3       1.4440     2.0220    23.7620 N.am  1 Q101  -0.4840 
  5 O3      -1.5060     7.0960    20.3130 O.2   1 Q101  -0.6040 
  6 O4       3.5180     2.8030    23.5890 O.2   1 Q101  -0.6060 
  7 C7       2.0320     0.7110    24.0800 C.3   1 Q101   0.0840 
  8 C8      -0.0190     2.1590    23.8490 C.3   1 Q101   0.0840 
  9 C12     -0.7760     9.3940    19.9110 C.3   1 Q101   0.1690 
 10 C13      0.4420    10.1100    20.5040 C.3   1 Q101  -0.1080 
 11 C14      1.4320     8.9960    20.8260 C.3   1 Q101   0.1020 
 12 C15      1.0410     6.6120    21.5780 C.ar  1 Q101   0.0330 
 13 C21      1.4480     5.5090    20.8410 C.ar  1 Q101  -0.1060 
 14 C22      1.0530     6.5100    22.9620 C.ar  1 Q101   0.1210 
 15 C24      1.8640     4.3470    21.4590 C.ar  1 Q101  -0.0920 
 16 C26      1.4620     5.3600    23.6170 C.ar  1 Q101  -0.1400 
 17 C27      1.8760     4.2740    22.8440 C.ar  1 Q101  -0.1150 
 18 C28      2.3200     2.9740    23.4260 C.2   1 Q101   0.6760 
 19 C50     -0.6420     7.9560    20.3990 C.2   1 Q101   0.6950 
 20 F1       0.6500     7.5710    23.6800 F     1 Q101  -0.1400 
 21 O1      -2.4320    11.3840    18.4480 O.2   1 Q101  -0.5930 
 22 CL1     -2.0180     5.0670    13.1520 Cl    1 Q101  -0.0550 
 23 C1      -2.5270     5.9790    14.5320 C.2   1 Q101   0.0330 
 24 C2      -3.3960     5.5820    15.4940 C.2   1 Q101  -0.1460 
 25 S2      -1.9000     7.5620    14.7720 S.3   1 Q101   0.0240 
 26 C3      -3.5750     6.5790    16.4560 C.2   1 Q101  -0.1130 
 27 C4      -2.8370     7.7330    16.2180 C.2   1 Q101  -0.0920 
 28 C5      -2.8600     8.9180    17.0830 C.2   1 Q101   0.0810 
 29 C6      -3.5070     9.0370    18.2420 C.2   1 Q101  -0.4200 
 30 O2      -4.2570    10.7700    20.0400 O.2   1 Q101  -0.5930 
 31 H142     1.9730     9.1790    21.7600 H     1 Q101   0.0600 
 32 H141     2.1430     8.8480    20.0070 H     1 Q101   0.0600 
 33 H132     0.8600    10.8560    19.8210 H     1 Q101   0.0720 
 34 H131     0.1620    10.6300    21.4280 H     1 Q101   0.0720 
 35 H83     -0.4640     1.7860    22.9300 H     1 Q101   0.0490 
 36 H82     -0.3800     1.5860    24.7080 H     1 Q101   0.0490 
 37 H81     -0.2650     3.2080    23.9960 H     1 Q101   0.0490 
 38 H73      2.6560     0.8180    24.9720 H     1 Q101   0.0490 
 39 H72      1.2480    -0.0300    24.2540 H     1 Q101   0.0490 
 40 H71      2.6690     0.3820    23.2520 H     1 Q101   0.0490 
 41 H6      -4.2590     8.3480    18.5990 H     1 Q101   0.1940 
 42 H5      -2.2320     9.7320    16.7230 H     1 Q101   0.1560 
 43 H3      -4.2170     6.4630    17.3230 H     1 Q101   0.1600 
 44 H26      1.4650     5.3200    24.6980 H     1 Q101   0.1600 
 45 H24      2.1420     3.4910    20.8570 H     1 Q101   0.1630 
 46 H21      1.4320     5.5440    19.7550 H     1 Q101   0.1530 
 47 H2      -3.8850     4.6180    15.5250 H     1 Q101   0.1720 
 48 H12     -0.6750     9.3680    18.8200 H     1 Q101   0.0910 
 49 H1      -2.4100     9.6130    21.2330 H     1 Q101   0.4670 
@<TRIPOS>BOND
  1   1   2  am  
  2   1   9  1   
  3   1  49  1   
  4   2  21  2   
  5   2  29  1   
  6   2  30  2   
  7   3  11  1   
  8   3  12  1   
  9   3  19  am  
 10   4   7  1   
 11   4   8  1   
 12   4  18  am  
 13   5  19  2   
 14   6  18  2   
 15   7  38  1   
 16   7  39  1   
 17   7  40  1   
 18   8  35  1   
 19   8  36  1   
 20   8  37  1   
 21   9  10  1   
 22   9  19  1   
 23   9  48  1   
 24  10  11  1   
 25  10  33  1   
 26  10  34  1   
 27  11  31  1   
 28  11  32  1   
 29  12  13  ar  
 30  12  14  ar  
 31  13  15  ar  
 32  13  46  1   
 33  14  16  ar  
 34  14  20  1   
 35  15  17  ar  
 36  15  45  1   
 37  16  17  ar  
 38  16  44  1   
 39  17  18  1   
 40  22  23  1   
 41  23  24  2   
 42  23  25  1   
 43  24  26  1   
 44  24  47  1   
 45  25  27  1   
 46  26  27  2   
 47  26  43  1   
 48  27  28  1   
 49  28  29  2   
 50  28  42  1   
 51  29  41  1   
@<TRIPOS>SUBSTRUCTURE
  1 Q101   5 GROUP 4 **** **** 0

# MOE 2011.10 (io_trps.svl 2011.10)

@<TRIPOS>MOLECULE
FXA101_198
49 51 1 0 0 
SMALL
USER_CHARGES


@<TRIPOS>ATOM
  1 N1       5.8770     9.2730    20.0780 N.am  1 Q101  -0.8960 
  2 S1       6.0750    10.3180    21.2930 S.o2  1 Q101   1.3220 
  3 N2       5.8090     5.8810    19.4830 N.am  1 Q101  -0.3970 
  4 N3       8.7320     0.8990    16.5650 N.am  1 Q101  -0.4840 
  5 O3       7.4380     6.9170    20.7400 O.2   1 Q101  -0.6040 
  6 O4       9.4350     0.6710    18.6610 O.2   1 Q101  -0.6060 
  7 C7       9.9480     0.2220    16.0870 C.3   1 Q101   0.0840 
  8 C8       7.6280     1.0870    15.6090 C.3   1 Q101   0.0840 
  9 C12      5.2770     7.9850    20.3370 C.3   1 Q101   0.1690 
 10 C13      4.2100     7.5880    19.3110 C.3   1 Q101  -0.1080 
 11 C14      4.4270     6.0970    19.0780 C.3   1 Q101   0.1020 
 12 C15      6.5490     4.7180    19.0980 C.ar  1 Q101   0.0330 
 13 C21      7.5720     4.7920    18.1630 C.ar  1 Q101  -0.1060 
 14 C22      6.2440     3.4750    19.6310 C.ar  1 Q101   0.1210 
 15 C24      8.2750     3.6690    17.7790 C.ar  1 Q101  -0.0920 
 16 C26      6.9270     2.3250    19.2690 C.ar  1 Q101  -0.1400 
 17 C27      7.9570     2.4390    18.3350 C.ar  1 Q101  -0.1150 
 18 C28      8.7550     1.2750    17.8470 C.2   1 Q101   0.6760 
 19 C50      6.3280     6.8860    20.2320 C.2   1 Q101   0.6950 
 20 F1       5.2480     3.3950    20.5290 F     1 Q101  -0.1400 
 21 O1       4.7420    10.6650    21.6810 O.2   1 Q101  -0.5930 
 22 CL1     10.2920     7.2290    27.3080 Cl    1 Q101  -0.0550 
 23 C1       9.8460     8.3760    26.0900 C.2   1 Q101   0.0330 
 24 C2      10.5500     9.4660    25.7030 C.2   1 Q101  -0.1460 
 25 S2       8.3660     8.1650    25.2390 S.3   1 Q101   0.0240 
 26 C3       9.8840    10.1660    24.6940 C.2   1 Q101  -0.1130 
 27 C4       8.6710     9.5990    24.3190 C.2   1 Q101  -0.0920 
 28 C5       7.7890    10.1520    23.2850 C.2   1 Q101   0.0810 
 29 C6       6.8550     9.4870    22.6050 C.2   1 Q101  -0.4200 
 30 O2       6.9640    11.2930    20.7270 O.2   1 Q101  -0.5930 
 31 H142     4.2800     5.8140    18.0310 H     1 Q101   0.0600 
 32 H141     3.7750     5.4960    19.7200 H     1 Q101   0.0600 
 33 H132     3.1970     7.8140    19.6550 H     1 Q101   0.0720 
 34 H131     4.3680     8.1330    18.3720 H     1 Q101   0.0720 
 35 H83      7.8290     1.9700    15.0060 H     1 Q101   0.0490 
 36 H82      7.5520     0.2010    14.9730 H     1 Q101   0.0490 
 37 H81      6.7000     1.2050    16.1630 H     1 Q101   0.0490 
 38 H73     10.0580    -0.7190    16.6330 H     1 Q101   0.0490 
 39 H72      9.8850     0.0310    15.0130 H     1 Q101   0.0490 
 40 H71     10.8230     0.8470    16.2960 H     1 Q101   0.0490 
 41 H6       6.5610     8.4670    22.8050 H     1 Q101   0.1940 
 42 H5       7.9150    11.2230    23.1310 H     1 Q101   0.1560 
 43 H3      10.2810    11.0630    24.2280 H     1 Q101   0.1600 
 44 H26      6.6660     1.3730    19.7120 H     1 Q101   0.1600 
 45 H24      9.0430     3.7520    17.0210 H     1 Q101   0.1630 
 46 H21      7.8240     5.7460    17.7060 H     1 Q101   0.1530 
 47 H2      11.5080     9.7600    26.1100 H     1 Q101   0.1720 
 48 H12      4.8440     7.9140    21.3420 H     1 Q101   0.0910 
 49 H1       6.5640     9.3170    19.3210 H     1 Q101   0.4670 
@<TRIPOS>BOND
  1   1   2  am  
  2   1   9  1   
  3   1  49  1   
  4   2  21  2   
  5   2  29  1   
  6   2  30  2   
  7   3  11  1   
  8   3  12  1   
  9   3  19  am  
 10   4   7  1   
 11   4   8  1   
 12   4  18  am  
 13   5  19  2   
 14   6  18  2   
 15   7  38  1   
 16   7  39  1   
 17   7  40  1   
 18   8  35  1   
 19   8  36  1   
 20   8  37  1   
 21   9  10  1   
 22   9  19  1   
 23   9  48  1   
 24  10  11  1   
 25  10  33  1   
 26  10  34  1   
 27  11  31  1   
 28  11  32  1   
 29  12  13  ar  
 30  12  14  ar  
 31  13  15  ar  
 32  13  46  1   
 33  14  16  ar  
 34  14  20  1   
 35  15  17  ar  
 36  15  45  1   
 37  16  17  ar  
 38  16  44  1   
 39  17  18  1   
 40  22  23  1   
 41  23  24  2   
 42  23  25  1   
 43  24  26  1   
 44  24  47  1   
 45  25  27  1   
 46  26  27  2   
 47  26  43  1   
 48  27  28  1   
 49  28  29  2   
 50  28  42  1   
 51  29  41  1   
@<TRIPOS>SUBSTRUCTURE
  1 Q101   5 GROUP 4 **** **** 0

# MOE 2011.10 (io_trps.svl 2011.10)

@<TRIPOS>MOLECULE
FXA101_199
49 51 1 0 0 
SMALL
USER_CHARGES


@<TRIPOS>ATOM
  1 N1       5.6190     8.0260    23.8010 N.am  1 Q101  -0.8960 
  2 S1       6.8090     9.1020    23.9960 S.o2  1 Q101   1.3220 
  3 N2       2.3720     7.6940    22.7000 N.am  1 Q101  -0.3970 
  4 N3      -3.9860     6.5250    23.5820 N.am  1 Q101  -0.4840 
  5 O3       3.0230     9.2320    24.2880 O.2   1 Q101  -0.6040 
  6 O4      -3.5430     8.2230    24.9460 O.2   1 Q101  -0.6060 
  7 C7      -4.7410     5.6900    24.5300 C.3   1 Q101   0.0840 
  8 C8      -4.2320     6.3270    22.1440 C.3   1 Q101   0.0840 
  9 C12      4.6420     8.2270    22.7560 C.3   1 Q101   0.1690 
 10 C13      4.4470     7.0030    21.8550 C.3   1 Q101  -0.1080 
 11 C14      2.9470     6.9450    21.5920 C.3   1 Q101   0.1020 
 12 C15      0.9910     7.5940    23.0600 C.ar  1 Q101   0.0330 
 13 C21      0.0330     8.4100    22.4760 C.ar  1 Q101  -0.1060 
 14 C22      0.5740     6.6920    24.0290 C.ar  1 Q101   0.1210 
 15 C24     -1.2970     8.3260    22.8340 C.ar  1 Q101  -0.0920 
 16 C26     -0.7520     6.5800    24.4150 C.ar  1 Q101  -0.1400 
 17 C27     -1.6900     7.4090    23.7980 C.ar  1 Q101  -0.1150 
 18 C28     -3.1430     7.4000    24.1380 C.2   1 Q101   0.6760 
 19 C50      3.2650     8.4690    23.3650 C.2   1 Q101   0.6950 
 20 F1       1.4980     5.9070    24.6060 F     1 Q101  -0.1400 
 21 O1       6.2600    10.0760    24.8870 O.2   1 Q101  -0.5930 
 22 CL1     13.7220     7.2780    27.3640 Cl    1 Q101  -0.0550 
 23 C1      12.6350     7.6810    26.0780 C.2   1 Q101   0.0330 
 24 C2      12.9690     8.0920    24.8310 C.2   1 Q101  -0.1460 
 25 S2      10.9400     7.5660    26.3420 S.3   1 Q101   0.0240 
 26 C3      11.8310     8.3310    24.0560 C.2   1 Q101  -0.1130 
 27 C4      10.6340     8.1000    24.7230 C.2   1 Q101  -0.0920 
 28 C5       9.3080     8.2840    24.1230 C.2   1 Q101   0.0810 
 29 C6       8.1440     8.3020    24.7700 C.2   1 Q101  -0.4200 
 30 O2       7.1520     9.4370    22.6420 O.2   1 Q101  -0.5930 
 31 H142     2.5670     5.9190    21.5770 H     1 Q101   0.0600 
 32 H141     2.6880     7.4500    20.6560 H     1 Q101   0.0600 
 33 H132     5.0310     7.0680    20.9320 H     1 Q101   0.0720 
 34 H131     4.7630     6.0930    22.3800 H     1 Q101   0.0720 
 35 H83     -3.6430     5.4810    21.7980 H     1 Q101   0.0490 
 36 H82     -5.2980     6.1400    21.9870 H     1 Q101   0.0490 
 37 H81     -3.9510     7.2320    21.6120 H     1 Q101   0.0490 
 38 H73     -5.3910     6.3390    25.1220 H     1 Q101   0.0490 
 39 H72     -5.3360     4.9440    23.9970 H     1 Q101   0.0490 
 40 H71     -4.0460     5.1860    25.2100 H     1 Q101   0.0490 
 41 H6       7.9700     7.8450    25.7340 H     1 Q101   0.1940 
 42 H5       9.3370     8.4680    23.0490 H     1 Q101   0.1560 
 43 H3      11.8720     8.6530    23.0200 H     1 Q101   0.1600 
 44 H26     -1.0410     5.8600    25.1690 H     1 Q101   0.1600 
 45 H24     -2.0150     9.0000    22.3860 H     1 Q101   0.1630 
 46 H21      0.3250     9.1440    21.7290 H     1 Q101   0.1530 
 47 H2      13.9810     8.2130    24.4700 H     1 Q101   0.1720 
 48 H12      4.8670     9.0970    22.1280 H     1 Q101   0.0910 
 49 H1       5.3000     7.5400    24.6430 H     1 Q101   0.4670 
@<TRIPOS>BOND
  1   1   2  am  
  2   1   9  1   
  3   1  49  1   
  4   2  21  2   
  5   2  29  1   
  6   2  30  2   
  7   3  11  1   
  8   3  12  1   
  9   3  19  am  
 10   4   7  1   
 11   4   8  1   
 12   4  18  am  
 13   5  19  2   
 14   6  18  2   
 15   7  38  1   
 16   7  39  1   
 17   7  40  1   
 18   8  35  1   
 19   8  36  1   
 20   8  37  1   
 21   9  10  1   
 22   9  19  1   
 23   9  48  1   
 24  10  11  1   
 25  10  33  1   
 26  10  34  1   
 27  11  31  1   
 28  11  32  1   
 29  12  13  ar  
 30  12  14  ar  
 31  13  15  ar  
 32  13  46  1   
 33  14  16  ar  
 34  14  20  1   
 35  15  17  ar  
 36  15  45  1   
 37  16  17  ar  
 38  16  44  1   
 39  17  18  1   
 40  22  23  1   
 41  23  24  2   
 42  23  25  1   
 43  24  26  1   
 44  24  47  1   
 45  25  27  1   
 46  26  27  2   
 47  26  43  1   
 48  27  28  1   
 49  28  29  2   
 50  28  42  1   
 51  29  41  1   
@<TRIPOS>SUBSTRUCTURE
  1 Q101  19 GROUP 4 **** **** 0

# MOE 2011.10 (io_trps.svl 2011.10)

@<TRIPOS>MOLECULE
FXA101_200
49 51 1 0 0 
SMALL
USER_CHARGES


@<TRIPOS>ATOM
  1 N1       1.7240    11.2730    14.1200 N.am  1 Q101  -0.8960 
  2 S1       1.5290    11.0680    12.5300 S.o2  1 Q101   1.3220 
  3 N2       3.8860    12.1730    16.6470 N.am  1 Q101  -0.3970 
  4 N3       7.7420     9.3720    21.0430 N.am  1 Q101  -0.4840 
  5 O3       4.1710    10.2970    15.3390 O.2   1 Q101  -0.6040 
  6 O4       6.9100    11.0970    22.1710 O.2   1 Q101  -0.6060 
  7 C7       8.5840     9.1040    22.2190 C.3   1 Q101   0.0840 
  8 C8       7.8460     8.4520    19.8980 C.3   1 Q101   0.0840 
  9 C12      2.7620    12.1540    14.6030 C.3   1 Q101   0.1690 
 10 C13      2.2340    13.3220    15.4420 C.3   1 Q101  -0.1080 
 11 C14      3.2420    13.4760    16.5760 C.3   1 Q101   0.1020 
 12 C15      4.6340    11.7470    17.7900 C.ar  1 Q101   0.0330 
 13 C21      5.9940    12.0000    17.8950 C.ar  1 Q101  -0.1060 
 14 C22      4.0220    11.0410    18.8150 C.ar  1 Q101   0.1210 
 15 C24      6.7210    11.5760    18.9890 C.ar  1 Q101  -0.0920 
 16 C26      4.7190    10.5980    19.9280 C.ar  1 Q101  -0.1400 
 17 C27      6.0830    10.8810    20.0060 C.ar  1 Q101  -0.1150 
 18 C28      6.9480    10.4430    21.1410 C.2   1 Q101   0.6760 
 19 C50      3.6910    11.4010    15.5480 C.2   1 Q101   0.6950 
 20 F1       2.7080    10.7840    18.7140 F     1 Q101  -0.1400 
 21 O1       1.4420    12.3980    12.0120 O.2   1 Q101  -0.5930 
 22 CL1      2.6710     3.7880    13.0680 Cl    1 Q101  -0.0550 
 23 C1       2.6570     5.5150    12.9360 C.2   1 Q101   0.0330 
 24 C2       2.4830     6.4050    13.9420 C.2   1 Q101  -0.1460 
 25 S2       2.8850     6.2420    11.3950 S.3   1 Q101   0.0240 
 26 C3       2.5270     7.7190    13.4680 C.2   1 Q101  -0.1130 
 27 C4       2.7340     7.8180    12.0970 C.2   1 Q101  -0.0920 
 28 C5       2.8150     9.0870    11.3660 C.2   1 Q101   0.0810 
 29 C6       2.9560    10.3000    11.9010 C.2   1 Q101  -0.4200 
 30 O2       0.4130    10.1670    12.4650 O.2   1 Q101  -0.5930 
 31 H142     2.7620    13.7260    17.5270 H     1 Q101   0.0600 
 32 H141     4.0000    14.2290    16.3330 H     1 Q101   0.0600 
 33 H132     2.1210    14.2380    14.8560 H     1 Q101   0.0720 
 34 H131     1.2500    13.0740    15.8580 H     1 Q101   0.0720 
 35 H83      8.7040     8.7360    19.2930 H     1 Q101   0.0490 
 36 H82      7.9640     7.4310    20.2700 H     1 Q101   0.0490 
 37 H81      6.9310     8.5120    19.3150 H     1 Q101   0.0490 
 38 H73      7.9320     8.8690    23.0650 H     1 Q101   0.0490 
 39 H72      9.2640     8.2710    22.0240 H     1 Q101   0.0490 
 40 H71      9.1630     9.9990    22.4690 H     1 Q101   0.0490 
 41 H6       3.8940    10.8290    11.9830 H     1 Q101   0.1940 
 42 H5       2.8040     8.9680    10.2830 H     1 Q101   0.1560 
 43 H3       2.4260     8.5890    14.1100 H     1 Q101   0.1600 
 44 H26      4.2060    10.0570    20.7120 H     1 Q101   0.1600 
 45 H24      7.7860    11.7570    19.0270 H     1 Q101   0.1630 
 46 H21      6.5130    12.5310    17.1010 H     1 Q101   0.1530 
 47 H2       2.3380     6.1440    14.9810 H     1 Q101   0.1720 
 48 H12      3.3880    12.5530    13.7960 H     1 Q101   0.0910 
 49 H1       1.4800    10.4780    14.7170 H     1 Q101   0.4670 
@<TRIPOS>BOND
  1   1   2  am  
  2   1   9  1   
  3   1  49  1   
  4   2  21  2   
  5   2  29  1   
  6   2  30  2   
  7   3  11  1   
  8   3  12  1   
  9   3  19  am  
 10   4   7  1   
 11   4   8  1   
 12   4  18  am  
 13   5  19  2   
 14   6  18  2   
 15   7  38  1   
 16   7  39  1   
 17   7  40  1   
 18   8  35  1   
 19   8  36  1   
 20   8  37  1   
 21   9  10  1   
 22   9  19  1   
 23   9  48  1   
 24  10  11  1   
 25  10  33  1   
 26  10  34  1   
 27  11  31  1   
 28  11  32  1   
 29  12  13  ar  
 30  12  14  ar  
 31  13  15  ar  
 32  13  46  1   
 33  14  16  ar  
 34  14  20  1   
 35  15  17  ar  
 36  15  45  1   
 37  16  17  ar  
 38  16  44  1   
 39  17  18  1   
 40  22  23  1   
 41  23  24  2   
 42  23  25  1   
 43  24  26  1   
 44  24  47  1   
 45  25  27  1   
 46  26  27  2   
 47  26  43  1   
 48  27  28  1   
 49  28  29  2   
 50  28  42  1   
 51  29  41  1   
@<TRIPOS>SUBSTRUCTURE
  1 Q101   5 GROUP 4 **** **** 0

# MOE 2011.10 (io_trps.svl 2011.10)

